data_cif
_audit_creation_method 'generated by iGOR'
_symmetry_space_group_name_H-M     'P 1'
_symmetry_Int_Tables_number        1
_symmetry_cell_setting             triclinic
_cell_length_a                     22.6273003
_cell_length_b                     22.6273003
_cell_length_c                     18.7943001
_cell_angle_alpha                  90.0000000
_cell_angle_beta                   90.0000000
_cell_angle_gamma                 120.0000000
loop_
_atom_site_label
_atom_site_fract_x
_atom_site_fract_y
_atom_site_fract_z
 Zn   7.93500021E-02  0.414110005      0.375000000    
 Zn   7.93500021E-02  0.414110005      0.875000000    
 Zn  0.918139994      0.584129989      0.125000000    
 Zn  0.918139994      0.584129989      0.625000000    
 Zn  0.583760023      0.664740026      0.375000000    
 Zn  0.583760023      0.664740026      0.875000000    
 Zn  0.333130002      0.918519974      0.375000000    
 Zn  0.333130002      0.918519974      0.875000000    
 Zn  0.664359987       7.97199979E-02  0.125000000    
 Zn  0.664359987       7.97199979E-02  0.625000000    
 Zn  0.413740009      0.333510011      0.125000000    
 Zn  0.413740009      0.333510011      0.625000000    
 Zn  0.664359987      0.584129989      0.125000000    
 Zn  0.664359987      0.584129989      0.625000000    
 Zn  0.918139994      0.333510011      0.125000000    
 Zn  0.918139994      0.333510011      0.625000000    
 Zn  0.413740009       7.97199979E-02  0.125000000    
 Zn  0.413740009       7.97199979E-02  0.625000000    
 Zn  0.583760023      0.918519974      0.375000000    
 Zn  0.583760023      0.918519974      0.875000000    
 Zn   7.93500021E-02  0.664740026      0.375000000    
 Zn   7.93500021E-02  0.664740026      0.875000000    
 Zn  0.333130002      0.414110005      0.375000000    
 Zn  0.333130002      0.414110005      0.875000000    
 C1  0.987259984      0.379649997      0.258049995    
 N1  0.947660029      0.327410012      0.213259995    
 N1   1.20999999E-02  0.359629989      0.313190013    
 C2  0.947470009      0.271109998      0.241750002    
 C2  0.986720026      0.290730000      0.302619994    
 C3   1.82999996E-03  0.451009989      0.247840002    
 H1  0.998290002      0.260650009      0.338939995    
 H1  0.919579983      0.221290007      0.216869995    
 H2   4.98300008E-02  0.480379999      0.214190006    
 H2  0.956900001      0.450370014      0.219659999    
 H2   9.90999956E-03  0.476870000      0.301860005    
 C1  0.978959978      0.376390010      0.763870001    
 N1  0.947660029      0.327410012      0.713259995    
 N1   1.20999999E-02  0.359629989      0.813189983    
 C2  0.961839974      0.276760012      0.731670022    
 C2   1.09000003E-03  0.296380013      0.792540014    
 C3  0.977150023      0.441300005      0.765139997    
 H1   2.18400005E-02  0.269899994      0.822430015    
 H1  0.943130016      0.230550006      0.700360000    
 H2   2.21800003E-02  0.481970012      0.733569980    
 H2  0.927429974      0.432550013      0.740310013    
 H2  0.980440021      0.459050000      0.822510004    
 C1  0.990419984      0.623629987      0.994159997    
 N1   4.98300008E-02  0.670830011      0.963259995    
 N1  0.985390007      0.638610005       6.31899983E-02
 C2   8.43700022E-02  0.718410015       1.58300009E-02
 C2   4.51200008E-02  0.698780000       7.67000020E-02
 H1  0.951319993      0.578939974      0.966750026    
 H2   5.54599985E-02  0.723290026      0.128380001    
 H2  0.134179994      0.762650013       6.32000016E-03
 C1   2.67600007E-02  0.627349973      0.519640028    
 N1   4.98300008E-02  0.670830011      0.463259995    
 N1  0.985390007      0.638610005      0.563189983    
 C2   2.13799998E-02  0.711960018      0.471679986    
 C2  0.982129991      0.692330003      0.532549977    
 H1   3.99199985E-02  0.588010013      0.528859973    
 C3  0.948040009      0.725820005      0.552829981    
 C3   2.65299994E-02  0.765060008      0.431109995    
 C4  0.953190029      0.778919995      0.512260020    
 C4  0.992439985      0.798550010      0.451389998    
 H2  0.915579975      0.709590018      0.603160024    
 H2   5.89900017E-02  0.781289995      0.380780011    
 H3  0.924979985      0.806620002      0.529030025    
 H3  0.996689975      0.842480004      0.417829990    
 C1  0.619140029      0.622579992      0.247850001    
 N1  0.670459986      0.619740009      0.213259995    
 N1  0.638239980      0.651970029      0.313190013    
 C2  0.725170016      0.649049997      0.259429991    
 C2  0.705540001      0.668669999      0.320300013    
 H1  0.568520010      0.603489995      0.225749999    
 H2  0.734610021      0.693220019      0.367900014    
 H2  0.773970008      0.653859973      0.245829999    
 C1  0.618219972      0.607110023      0.758050025    
 N1  0.670459986      0.619740009      0.713259995    
 N1  0.638239980      0.651970029      0.813189983    
 C2  0.726760030      0.675859988      0.741750002    
 C2  0.707140028      0.695479989      0.802619994    
 C3  0.546859980      0.550329983      0.747839987    
 H1  0.737219989      0.737140000      0.838940024    
 H1  0.776579976      0.697780013      0.716870010    
 H2  0.517490029      0.568960011      0.714190006    
 H2  0.547500014      0.506039977      0.719659984    
 H2  0.521000028      0.532540023      0.801859975    
 C1  0.365909994      0.990790009      0.244159997    
 N1  0.378129989       5.02099991E-02  0.213259995    
 N1  0.345899999      0.985769987      0.313190013    
 C2  0.365079999       8.47399980E-02  0.265819997    
 C2  0.345459998       4.54900004E-02  0.326689988    
 C3  0.373600006      0.937070012      0.206510007    
 H1  0.331290007       5.58400005E-02  0.378369987    
 H1  0.370649993      0.134550005      0.256300002    
 H2  0.323179990      0.899489999      0.180160001    
 H2  0.414999992      0.961809993      0.164169997    
 H2  0.388489991      0.908810019      0.246380001    
 C1  0.338770002      0.986899972      0.741439998    
 N1  0.378129989       5.02099991E-02  0.713259995    
 N1  0.345899999      0.985769987      0.813189983    
 C2  0.412099987       9.14700031E-02  0.770550013    
 C2  0.392479986       5.22300005E-02  0.831420004    
 H1  0.305359989      0.942219973      0.710110009    
 C3  0.419440001       8.17800015E-02  0.896309972    
 C3  0.458680004      0.160260007      0.774590015    
 C4  0.466010004      0.150570005      0.900349975    
 C4  0.485639989      0.189820006      0.839489996    
 H2  0.403200001       4.93200012E-02  0.946650028    
 H2  0.474909991      0.192719996      0.724250019    
 H3  0.488319993      0.175019994      0.954039991    
 H3  0.524169981      0.246730000      0.842830002    
 C1  0.613730013      0.995429993       2.58999993E-03
 N1  0.619369984      0.948029995      0.963259995    
 N1  0.651589990       1.24700004E-02   6.31899983E-02
 C2  0.663349986      0.934329987       1.21999998E-03
 C2  0.682980001      0.973580003       6.20899983E-02
 H1  0.582459986       1.72400009E-02  0.987299979    
 H2  0.716889977      0.976530015      0.104460001    
 H2  0.677540004      0.897819996      0.982389987    
 C1  0.631590009       7.44999992E-03  0.494159997    
 N1  0.619369984      0.948029995      0.463259995    
 N1  0.651589990       1.24700004E-02  0.563189983    
 C2  0.632399976      0.913500011      0.515829980    
 C2  0.652029991      0.952740014      0.576699972    
 H1  0.625999987       4.65499982E-02  0.466749996    
 H2  0.666199982      0.942399979      0.628380001    
 H2  0.626839995      0.863690019      0.506309986    
 C1  0.378349990      0.375660002      0.997850001    
 N1  0.327039987      0.378500015      0.963259995    
 N1  0.359259993      0.346280009       6.31899983E-02
 C2  0.272329986      0.349209994       9.44000017E-03
 C2  0.291960001      0.329580009       7.03099966E-02
 H1  0.428970009      0.394739985      0.975740016    
 H2  0.262890011      0.305040002      0.117909998    
 H2  0.223529994      0.344399989      0.995840013    
 C1  0.374240011      0.366279989      0.494159997    
 N1  0.327039987      0.378500015      0.463259995    
 N1  0.359259993      0.346280009      0.563189983    
 C2  0.279469997      0.365469992      0.515829980    
 C2  0.299089998      0.345840007      0.576699972    
 C3  0.435640007      0.373959988      0.456499994    
 H1  0.274580002      0.331680000      0.628390014    
 H1  0.235220000      0.371030003      0.506320000    
 H2  0.422800004      0.323540002      0.430159986    
 H2  0.452300012      0.415360004      0.414160013    
 H2  0.478799999      0.388859987      0.496360004    
 C1  0.995050013      0.614099979      0.252590001    
 N1   1.20999999E-02  0.651970029      0.313190013    
 N1  0.947660029      0.619740009      0.213259995    
 C2  0.973209977      0.683359981      0.312090009    
 C2  0.933960021      0.663739979      0.251219988    
 H1   1.68600008E-02  0.582830012      0.237299994    
 H2  0.897449970      0.677929997      0.232380003    
 H2  0.976170003      0.717289984      0.354449987    
 C1  0.987259984      0.607110023      0.758050025    
 N1   1.20999999E-02  0.651970029      0.813189983    
 N1  0.947660029      0.619740009      0.713259995    
 C2  0.986720026      0.695479989      0.802619994    
 C2  0.947470009      0.675859988      0.741750002    
 H1  0.997860014      0.565779984      0.750620008    
 H2  0.919579983      0.697780013      0.716870010    
 H2  0.998290002      0.737140000      0.838940024    
 C1   2.67600007E-02  0.398909986       1.96400005E-02
 N1  0.985390007      0.346280009       6.31899983E-02
 N1   4.98300008E-02  0.378500015      0.963259995    
 C2  0.982129991      0.289299995       3.25499997E-02
 C2   2.13799998E-02  0.308930010      0.971679986    
 H1   3.99199985E-02  0.451409996       2.88600009E-02
 H2   3.09999995E-02  0.278409988      0.933990002    
 H2  0.952279985      0.239060000       5.60600013E-02
 C1  0.995679975      0.375660002      0.497850001    
 N1  0.985390007      0.346280009      0.563189983    
 N1   4.98300008E-02  0.378500015      0.463259995    
 C2   3.59899998E-02  0.329580009      0.570309997    
 C2   7.52400011E-02  0.349200010      0.509440005    
 H1  0.964150012      0.394749999      0.475749999    
 H2  0.119230002      0.344390005      0.495840013    
 H2   4.05200012E-02  0.305040002      0.617910028    
 C1  0.375290006      0.378729999      0.247850001    
 N1  0.345899999      0.359629989      0.313190013    
 N1  0.378129989      0.327410012      0.213259995    
 C2  0.329200000      0.292329997      0.320300013    
 C2  0.348820001      0.272700012      0.259429991    
 H1  0.394380003      0.429349989      0.225749999    
 H2  0.344009995      0.223900005      0.245829999    
 H2  0.304650009      0.263260007      0.367900014    
 C1  0.365909994      0.374610007      0.744159997    
 N1  0.345899999      0.359629989      0.813189983    
 N1  0.378129989      0.327410012      0.713259995    
 C2  0.345450014      0.299459994      0.826690018    
 C2  0.365079999      0.279839993      0.765829980    
 C3  0.373600006      0.436019987      0.706510007    
 H1  0.370640010      0.235589996      0.756309986    
 H1  0.331279993      0.274940014      0.878380001    
 H2  0.323179990      0.423189998      0.680159986    
 H2  0.388500005      0.479180008      0.746370018    
 H2  0.414999992      0.452679992      0.664170027    
 C1  0.629499972      0.987380028      0.241769999    
 N1  0.638239980      0.985769987      0.313190013    
 N1  0.670459986       5.02099991E-02  0.213259995    
 C2  0.687600017       5.14100008E-02  0.330839992    
 C2  0.707220018       9.06499997E-02  0.269970000    
 C3  0.580410004      0.926919997      0.199389994    
 H1  0.744570017      0.144229993      0.263099998    
 H1  0.705209970       6.55200034E-02  0.385170013    
 H2  0.606880009      0.898469985      0.179450005    
 H2  0.535139978      0.891520023      0.234249994    
 H2  0.561640024      0.944519997      0.152050003    
 C1  0.637430012      0.986060023      0.740840018    
 N1  0.638239980      0.985769987      0.813189983    
 N1  0.670459986       5.02099991E-02  0.713259995    
 C2  0.673860013       5.37000000E-02  0.832449973    
 C2  0.693480015       9.29500014E-02  0.771579981    
 H1  0.613099992      0.940150023      0.708660007    
 H2  0.722060025      0.148000002      0.765730023    
 H2  0.682699978       6.92799985E-02  0.887799978    
 C1  0.379269987      0.987630010       8.05000030E-03
 N1  0.359259993       1.24700004E-02   6.31899983E-02
 N1  0.327039987      0.948029995      0.963259995    
 C2  0.290360004      0.987089992       5.26299998E-02
 C2  0.270729989      0.947839975      0.991760015    
 H1  0.431210011      0.998239994       6.09999988E-04
 H2  0.220919997      0.919950008      0.966880023    
 H2  0.260280013      0.998660028       8.89500007E-02
 C1  0.380070001      0.995419979      0.502590001    
 N1  0.359259993       1.24700004E-02  0.563189983    
 N1  0.327039987      0.948029995      0.463259995    
 C2  0.288980007      0.973590016      0.562089980    
 C2  0.269349992      0.934340000      0.501219988    
 H1  0.433160007       1.72400009E-02  0.487300009    
 C3  0.201130003      0.890720010      0.487630010    
 C3  0.240370005      0.969200015      0.609340012    
 C4  0.152520001      0.886330009      0.534879982    
 C4  0.172150001      0.925580025      0.595749974    
 H2  0.184900001      0.858259976      0.437290013    
 H2  0.256599993       1.65999995E-03  0.659680009    
 H3   9.60799977E-02  0.850250006      0.523630023    
 H3  0.131940007      0.921959996      0.634840012    
 C1  0.606729984      0.618589997       8.05000030E-03
 N1  0.651589990      0.638610005       6.31899983E-02
 N1  0.619369984      0.670830011      0.963259995    
 C2  0.695100009      0.707509995       5.26299998E-02
 C2  0.675480008      0.727140009      0.991760015    
 H1  0.565410018      0.566659987       6.09999988E-04
 H2  0.697399974      0.776950002      0.966880023    
 H2  0.736760020      0.737590015       8.89500007E-02
 C1  0.622210026      0.619520009      0.497850001    
 N1  0.651589990      0.638610005      0.563189983    
 N1  0.619369984      0.670830011      0.463259995    
 C2  0.668290019      0.705910027      0.570309997    
 C2  0.648670018      0.725539982      0.509440005    
 H1  0.603120029      0.568899989      0.475749999    
 C3  0.659850001      0.791050017      0.503340006    
 C3  0.699100018      0.751800001      0.625050008    
 C4  0.690660000      0.836929977      0.558089972    
 C4  0.710280001      0.817300022      0.618950009    
 H2  0.643630028      0.807280004      0.453000009    
 H2  0.715319991      0.735570014      0.675390005    
 H3  0.699919999      0.891120017      0.553040028    
 H3  0.735769987      0.855270028      0.664250016    
 C1  0.216319993      0.434280008      0.354970008    
 N1  0.247630000      0.396869987      0.345519990    
 N1  0.147609994      0.396869987      0.345519990    
 C2  0.195659995      0.332040012      0.329140007    
 C2  0.134739995      0.332040012      0.329140007    
 H1  0.243220001      0.488070011      0.368570000    
 H2   8.34299996E-02  0.290659994      0.318690002    
 H2  0.205599993      0.290659994      0.318690002    
 C1  0.203050002      0.407720000      0.884029984    
 N1  0.247630000      0.396869987      0.845520020    
 N1  0.147609994      0.396869987      0.845520020    
 C2  0.218679994      0.378060013      0.778789997    
 C2  0.157749996      0.378060013      0.778789997    
 H1  0.210850000      0.423330009      0.939390004    
 H2  0.121119998      0.366059989      0.736209989    
 H2  0.243300006      0.366059989      0.736209989    
 C1  0.789849997      0.581330001      0.129789993    
 N1  0.749859989      0.601379991       9.55300033E-02
 N1  0.849889994      0.601379991       9.55300033E-02
 C2  0.786790013      0.636129975       3.61599997E-02
 C2  0.847710013      0.636129975       3.61599997E-02
 H1  0.775430024      0.552500010      0.179040000    
 C3  0.894020021      0.667850018      0.981949985    
 C3  0.772199988      0.667850018      0.981949985    
 C4  0.879440010      0.699580014      0.927749991    
 C4  0.818509996      0.699580014      0.927749991    
 H2  0.944400012      0.667850018      0.981949985    
 H2  0.721819997      0.667850018      0.981949985    
 H3  0.917750001      0.725820005      0.882910013    
 H3  0.806439996      0.725820005      0.882910013    
 C1  0.789849997      0.581330001      0.629790008    
 N1  0.749859989      0.601379991      0.595529974    
 N1  0.849889994      0.601379991      0.595529974    
 C2  0.786790013      0.636129975      0.536159992    
 C2  0.847710013      0.636129975      0.536159992    
 C3  0.770039976      0.541719973      0.697459996    
 H1  0.889429986      0.658309996      0.498270005    
 H1  0.767250001      0.658309996      0.498270005    
 H2  0.788399994      0.578440011      0.744509995    
 H2  0.712149978      0.508210003      0.699819982    
 H2  0.794430017      0.508210003      0.699819982    
 C1  0.567210019      0.783360004      0.364749998    
 N1  0.601000011      0.850260019      0.345519990    
 N1  0.601000011      0.750240028      0.345519990    
 C2  0.659560025      0.859990001      0.312200010    
 C2  0.659560025      0.799070001      0.312200010    
 C3  0.500469983      0.749979973      0.402729988    
 H1  0.696929991      0.787119985      0.290939987    
 H1  0.696929991      0.909300029      0.290939987    
 H2  0.509720027      0.754610002      0.462610006    
 H2  0.470310003      0.776040018      0.387309998    
 H2  0.470310003      0.693769991      0.387309998    
 C1  0.573140025      0.786319971      0.873210013    
 N1  0.601000011      0.850260019      0.845520020    
 N1  0.601000011      0.750240028      0.845520020    
 C2  0.649290025      0.854860008      0.797540009    
 C2  0.649290025      0.793929994      0.797540009    
 H1  0.533070028      0.766290009      0.913020015    
 H2  0.680109978      0.778720021      0.766910017    
 H2  0.680109978      0.900889993      0.766910017    
 C1  0.207640007      0.790229976      0.379790008    
 N1  0.147609994      0.750240028      0.345519990    
 N1  0.247630000      0.850260019      0.345519990    
 C2  0.149790004      0.787159979      0.286139995    
 C2  0.210710004      0.848079979      0.286139995    
 H1  0.222049996      0.775820017      0.429049999    
 H2  0.230260000      0.889789999      0.248249993    
 H2  0.108080000      0.767610013      0.248249993    
 C1  0.188400000      0.809469998      0.880750000    
 N1  0.147609994      0.750240028      0.845520020    
 N1  0.247630000      0.850260019      0.845520020    
 C2  0.183139995      0.753809988      0.784470022    
 C2  0.244059995      0.814729989      0.784470022    
 H1  0.175139993      0.822730005      0.931400001    
 H2  0.284880012      0.835160017      0.745509982    
 H2  0.162709996      0.712989986      0.745509982    
 C1  0.804400027      0.193460003      0.134529993    
 N1  0.849879980      0.247999996       9.55199972E-02
 N1  0.749859989      0.147980005       9.55199972E-02
 C2  0.822480023      0.236300007       2.79300008E-02
 C2  0.761560023      0.175380006       2.79300008E-02
 H1  0.810920000      0.186949998      0.190620005    
 C3  0.723940015      0.152099997      0.966210008    
 C3  0.845759988      0.273920000      0.966210008    
 C4  0.747229993      0.189720005      0.904500008    
 C4  0.808149993      0.250640005      0.904500008    
 H2  0.673560023      0.101709999      0.966210008    
 H2  0.896149993      0.324299991      0.966210008    
 H3  0.716109991      0.170450002      0.853450000    
 H3  0.827409983      0.281760007      0.853450000    
 C1  0.794439971      0.203419998      0.634029984    
 N1  0.849879980      0.247999996      0.595520020    
 N1  0.749859989      0.147980005      0.595520020    
 C2  0.839739978      0.219050005      0.528800011    
 C2  0.778819978      0.158120006      0.528800011    
 H1  0.786639988      0.211229995      0.689390004    
 H2  0.754199982      0.121490002      0.486209989    
 H2  0.876380026      0.243670002      0.486209989    
 C1  0.416539997      0.208020002      0.129789993    
 N1  0.396490008      0.147980005       9.55300033E-02
 N1  0.396490008      0.247999996       9.55300033E-02
 C2  0.361739993      0.150150001       3.61599997E-02
 C2  0.361739993      0.211080000       3.61599997E-02
 H1  0.445369989      0.222430006      0.179040000    
 C3  0.330020010      0.225659996      0.981949985    
 C3  0.330020010      0.103840001      0.981949985    
 C4  0.298290014      0.179350004      0.927749991    
 C4  0.298290014      0.118430004      0.927749991    
 H2  0.330020010      0.276050001      0.981949985    
 H2  0.330020010       5.34599982E-02  0.981949985    
 H3  0.272049993      0.191420004      0.882910013    
 H3  0.272049993       8.01199973E-02  0.882910013    
 C1  0.433899999      0.216700003      0.604969978    
 N1  0.396490008      0.147980005      0.595529974    
 N1  0.396490008      0.247999996      0.595529974    
 C2  0.331649989      0.135110006      0.579159975    
 C2  0.331649989      0.196030006      0.579159975    
 H1  0.487690002      0.243589997      0.618539989    
 H2  0.290280014      0.205970004      0.568719983    
 H2  0.290280014       8.38000029E-02  0.568719983    
 C1  0.100220002      0.549860001      0.405730009    
 N1  0.111649998      0.605589986      0.367399991    
 N1  0.111649998      0.505569994      0.367399991    
 C2  0.131479993      0.595950007      0.300989985    
 C2  0.131479993      0.535030007      0.300989985    
 H1   8.37699994E-02  0.541630030      0.460819989    
 H2  0.144130006      0.510730028      0.258610010    
 H2  0.144130006      0.632900000      0.258610010    
 C1   7.41000026E-02  0.536800027      0.876230001    
 N1  0.111649998      0.605589986      0.867399991    
 N1  0.111649998      0.505569994      0.867399991    
 C2  0.176730007      0.618570030      0.852090001    
 C2  0.176730007      0.557650030      0.852090001    
 H1   2.01200005E-02  0.509809971      0.888930023    
 C3  0.236129999      0.556909978      0.838119984    
 C3  0.236129999      0.678730011      0.838119984    
 C4  0.295540005      0.617060006      0.824150026    
 C4  0.295540005      0.677980006      0.824150026    
 H2  0.236129999      0.506519973      0.838119984    
 H2  0.236129999      0.729110003      0.838119984    
 H3  0.344689995      0.616439998      0.812590003    
 H3  0.344689995      0.727750003      0.812590003    
 C1  0.918380022      0.458939999       9.59599987E-02
 N1  0.885839999      0.392659992      0.117399998    
 N1  0.885839999      0.492680013      0.117399998    
 C2  0.829439998      0.384009987      0.154550001    
 C2  0.829439998      0.444929987      0.154550001    
 H1  0.965170026      0.482329994       6.51400015E-02
 H2  0.793449998      0.457560003      0.178259999    
 H2  0.793449998      0.335390002      0.178259999    
 C1  0.919910014      0.459710002      0.636070013    
 N1  0.885839999      0.392659992      0.617399991    
 N1  0.885839999      0.492680013      0.617399991    
 C2  0.826780021      0.382679999      0.585049987    
 C2  0.826780021      0.443599999      0.585049987    
 H1  0.968909979      0.484200001      0.662899971    
 C3  0.772870004      0.447100013      0.555519998    
 C3  0.772870004      0.325269997      0.555519998    
 C4  0.718959987      0.389690012      0.525990009    
 C4  0.718959987      0.328770012      0.525990009    
 H2  0.772870004      0.497480005      0.555519998    
 H2  0.772870004      0.274890006      0.555519998    
 H3  0.674359977      0.392580003      0.501559973    
 H3  0.674359977      0.281280011      0.501559973    
 C1  0.456440002      0.541429996      0.394630015    
 N1  0.392280012      0.505569994      0.367399991    
 N1  0.492300004      0.605589986      0.367399991    
 C2  0.387320012      0.549619973      0.320219994    
 C2  0.448249996      0.610549986      0.320219994    
 H1  0.476770014      0.521099985      0.433770001    
 C3  0.456319988      0.663370013      0.277150005    
 C3  0.334500015      0.541549981      0.277150005    
 C4  0.403499991      0.655290008      0.234080002    
 C4  0.342579991      0.594370008      0.234080002    
 H2  0.506709993      0.713750005      0.277150005    
 H2  0.284119993      0.491160005      0.277150005    
 H3  0.410180002      0.698989987      0.198449999    
 H3  0.298880011      0.587689996      0.198449999    
 C1  0.452569991      0.545300007      0.901329994    
 N1  0.392280012      0.505569994      0.867399991    
 N1  0.492300004      0.605589986      0.867399991    
 C2  0.394019991      0.542930007      0.808600008    
 C2  0.454939991      0.603850007      0.808600008    
 H1  0.467359990      0.530510008      0.950110018    
 C3  0.469119996      0.650569975      0.754920006    
 C3  0.347299993      0.528750002      0.754920006    
 C4  0.422410011      0.636380017      0.701240003    
 C4  0.361490011      0.575460017      0.701240003    
 H2  0.519500017      0.700950027      0.754920006    
 H2  0.296920002      0.478370011      0.754920006    
 H3  0.434139997      0.675029993      0.656840026    
 H3  0.322840005      0.563730001      0.656840026    
 C1  0.459329993      0.920300007      0.386070013    
 N1  0.492300004      0.886219978      0.367399991    
 N1  0.392280012      0.886219978      0.367399991    
 C2  0.443230003      0.827160001      0.335060000    
 C2  0.382299989      0.827160001      0.335060000    
 C3  0.492989987      0.987609982      0.422939986    
 H1  0.332830012      0.789470017      0.314410001    
 H1  0.455009997      0.789470017      0.314410001    
 H2  0.488819987      0.979269981      0.482969999    
 H2  0.549090028       1.75299998E-02  0.407020003    
 H2  0.466809988       1.75299998E-02  0.407020003    
 C1  0.461530000      0.924679995      0.865800023    
 N1  0.492300004      0.886219978      0.867399991    
 N1  0.392280012      0.886219978      0.867399991    
 C2  0.439429998      0.819559991      0.870180011    
 C2  0.378500015      0.819559991      0.870180011    
 C2  0.499509990       6.60000020E-04  0.862640023    
 H1  0.326609999      0.777029991      0.871949971    
 H1  0.448790014      0.777029991      0.871949971    
 H2  0.510299981       2.22200006E-02  0.918969989    
 H2  0.549790025       1.89399999E-02  0.833260000    
 H2  0.467519999       1.89399999E-02  0.833260000    
 C1  0.535969973       7.35599995E-02  0.115800001    
 N1  0.505190015      0.112020001      0.117399998    
 N1  0.605210006      0.112020001      0.117399998    
 C2  0.558070004      0.178680003      0.120180003    
 C2  0.618990004      0.178680003      0.120180003    
 H1  0.508319974       1.82600003E-02  0.113499999    
 C3  0.679870009      0.239529997      0.122709997    
 C3  0.558040023      0.239529997      0.122709997    
 C4  0.679840028      0.300379992      0.125239998    
 C4  0.618920028      0.300379992      0.125239998    
 H2  0.730250001      0.239529997      0.122709997    
 H2  0.507659972      0.239529997      0.122709997    
 H3  0.730199993      0.350719988      0.127340004    
 H3  0.618900001      0.350719988      0.127340004    
 C1  0.544920027       9.14599970E-02  0.651329994    
 N1  0.505190015      0.112020001      0.617399991    
 N1  0.605210006      0.112020001      0.617399991    
 C2  0.542559981      0.147660002      0.558600008    
 C2  0.603479981      0.147660002      0.558600008    
 C3  0.524609983       5.08500002E-02  0.718349993    
 H1  0.645479977      0.170399994      0.521080017    
 H1  0.523299992      0.170399994      0.521080017    
 H2  0.542620003       8.68600011E-02  0.765990019    
 H2  0.466710001       1.73000004E-02  0.720170021    
 H2  0.548979998       1.73000004E-02  0.720170021    
 C1  0.538929999      0.458939999       9.59599987E-02
 N1  0.605210006      0.492680013      0.117399998    
 N1  0.505190015      0.392659992      0.117399998    
 C2  0.613860011      0.444929987      0.154550001    
 C2  0.552940011      0.384009987      0.154550001    
 H1  0.515540004      0.482329994       6.51400015E-02
 H2  0.540310025      0.335390002      0.178259999    
 H2  0.662479997      0.457560003      0.178259999    
 C1  0.536430001      0.461439997      0.626230001    
 N1  0.605210006      0.492680013      0.617399991    
 N1  0.505190015      0.392659992      0.617399991    
 C2  0.618200004      0.440589994      0.602090001    
 C2  0.557280004      0.379669994      0.602090001    
 H1  0.509429991      0.488440007      0.638939977    
 H2  0.547410011      0.328280002      0.592320025    
 H2  0.669589996      0.450459987      0.592320025    
