data_cif
_audit_creation_method 'generated by iGOR'
_symmetry_space_group_name_H-M     'P 1'
_symmetry_Int_Tables_number        1
_symmetry_cell_setting             triclinic
_cell_length_a                     22.6273003
_cell_length_b                     22.6273003
_cell_length_c                     18.7943001
_cell_angle_alpha                  90.0000000
_cell_angle_beta                   90.0000000
_cell_angle_gamma                 120.0000000
loop_
_atom_site_label
_atom_site_fract_x
_atom_site_fract_y
_atom_site_fract_z
 Zn   7.93500021E-02  0.414110005      0.375000000    
 Zn   7.93500021E-02  0.414110005      0.875000000    
 Zn  0.918139994      0.584129989      0.125000000    
 Zn  0.918139994      0.584129989      0.625000000    
 Zn  0.583760023      0.664740026      0.375000000    
 Zn  0.583760023      0.664740026      0.875000000    
 Zn  0.333130002      0.918519974      0.375000000    
 Zn  0.333130002      0.918519974      0.875000000    
 Zn  0.664359987       7.97199979E-02  0.125000000    
 Zn  0.664359987       7.97199979E-02  0.625000000    
 Zn  0.413740009      0.333510011      0.125000000    
 Zn  0.413740009      0.333510011      0.625000000    
 Zn  0.664359987      0.584129989      0.125000000    
 Zn  0.664359987      0.584129989      0.625000000    
 Zn  0.918139994      0.333510011      0.125000000    
 Zn  0.918139994      0.333510011      0.625000000    
 Zn  0.413740009       7.97199979E-02  0.125000000    
 Zn  0.413740009       7.97199979E-02  0.625000000    
 Zn  0.583760023      0.918519974      0.375000000    
 Zn  0.583760023      0.918519974      0.875000000    
 Zn   7.93500021E-02  0.664740026      0.375000000    
 Zn   7.93500021E-02  0.664740026      0.875000000    
 Zn  0.333130002      0.414110005      0.375000000    
 Zn  0.333130002      0.414110005      0.875000000    
 C1  0.995050013      0.380450010      0.252590001    
 N1  0.947660029      0.327410012      0.213259995    
 N1   1.20999999E-02  0.359629989      0.313190013    
 C2  0.933960021      0.269730002      0.251219988    
 C2  0.973209977      0.289350003      0.312090009    
 H1   1.68600008E-02  0.433530003      0.237299994    
 C3  0.968829989      0.240740001      0.359340012    
 C3  0.890339971      0.201499999      0.237619996    
 C4  0.925209999      0.172519997      0.345739990    
 C4  0.885959983      0.152899995      0.284869999    
 H2   1.29000004E-03  0.256969988      0.409669995    
 H2  0.857879996      0.185269997      0.187279999    
 H3  0.921580017      0.132310003      0.384820014    
 H3  0.849870026       9.64599997E-02  0.273620009    
 C1  0.987259984      0.379649997      0.758050025    
 N1  0.947660029      0.327410012      0.713259995    
 N1   1.20999999E-02  0.359629989      0.813189983    
 C2  0.947470009      0.271109998      0.741750002    
 C2  0.986720026      0.290730000      0.802619994    
 H1  0.997860014      0.431589991      0.750620008    
 C3  0.994660020      0.243389994      0.841229975    
 C3  0.916180015      0.204150006      0.719510019    
 C4  0.963370025      0.176430002      0.818979979    
 C4  0.924120009      0.156810001      0.758120000    
 H2   2.71199998E-02  0.259620011      0.891560018    
 H2  0.883719981      0.187920004      0.669170022    
 H3  0.969940007      0.137260005      0.850920022    
 H3  0.898230016      0.101410002      0.739709973    
 C1   2.43999995E-03  0.617799997       2.58999993E-03
 N1   4.98300008E-02  0.670830011      0.963259995    
 N1  0.985390007      0.638610005       6.31899983E-02
 C2   6.35299981E-02  0.728519976       1.23000005E-03
 C2   2.42800005E-02  0.708890021       6.21000007E-02
 H1  0.980620027      0.564710021      0.987299979    
 C3   2.86699999E-02  0.757499993      0.109350003    
 C3  0.107160002      0.796739995      0.987630010    
 C4   7.22900033E-02  0.825720012       9.57499966E-02
 C4  0.111539997      0.845350027       3.48899998E-02
 H2  0.996209979      0.741270006      0.159679994    
 H2  0.139610007      0.812969983      0.937300026    
 H3   7.59200007E-02  0.865930021      0.134839997    
 H3  0.147630006      0.901790023       2.36399993E-02
 C1   1.02300001E-02  0.618589997      0.508050025    
 N1   4.98300008E-02  0.670830011      0.463259995    
 N1  0.985390007      0.638610005      0.563189983    
 C2   5.00300005E-02  0.727140009      0.491759986    
 C2   1.07800001E-02  0.707509995      0.552630007    
 H1  0.999620020      0.566659987      0.500609994    
 C3   2.83999997E-03  0.754849970      0.591239989    
 C3   8.13200027E-02  0.794099987      0.469520003    
 C4   3.41299996E-02  0.821810007      0.569000006    
 C4   7.33800009E-02  0.841440022      0.508130014    
 H2  0.970380008      0.738619983      0.641579986    
 H2  0.113779999      0.810329974      0.419189990    
 H3   2.75599994E-02  0.860979974      0.600939989    
 H3   9.92700011E-02  0.896839976      0.489740014    
 C1  0.619140029      0.622579992      0.247850001    
 N1  0.670459986      0.619740009      0.213259995    
 N1  0.638239980      0.651970029      0.313190013    
 C2  0.725170016      0.649049997      0.259429991    
 C2  0.705540001      0.668669999      0.320300013    
 H1  0.568520010      0.603489995      0.225749999    
 C3  0.751429975      0.699490011      0.375039995    
 C3  0.790669978      0.660239995      0.253329992    
 C4  0.816940010      0.710680008      0.368939996    
 C4  0.836560011      0.691049993      0.308070004    
 H2  0.735199988      0.715719998      0.425379992    
 H2  0.806900024      0.644010007      0.202989995    
 H3  0.854900002      0.736169994      0.414229989    
 H3  0.890749991      0.700309992      0.303020000    
 C1  0.646510005      0.659099996      0.741439998    
 N1  0.670459986      0.619740009      0.713259995    
 N1  0.638239980      0.651970029      0.813189983    
 C2  0.677749991      0.585770011      0.770550013    
 C2  0.658119977      0.605400026      0.831420004    
 H1  0.635230005      0.692510009      0.710110009    
 C3  0.660719991      0.578440011      0.896309972    
 C3  0.699959993      0.539189994      0.774600029    
 C4  0.682940006      0.531859994      0.900359988    
 C4  0.702560008      0.512239993      0.839489996    
 H2  0.644490004      0.594669998      0.946650028    
 H2  0.716189981      0.522960007      0.724259973    
 H3  0.685079992      0.509559989      0.954039991    
 H3  0.720939994      0.473699987      0.842840016    
 C1  0.365909994      0.990790009      0.244159997    
 N1  0.378129989       5.02099991E-02  0.213259995    
 N1  0.345899999      0.985769987      0.313190013    
 C2  0.365079999       8.47399980E-02  0.265819997    
 C2  0.345459998       4.54900004E-02  0.326689988    
 C3  0.373600006      0.937070012      0.206510007    
 H1  0.331290007       5.58400005E-02  0.378369987    
 H1  0.370649993      0.134550005      0.256300002    
 H2  0.323179990      0.899489999      0.180160001    
 H2  0.414999992      0.961809993      0.164169997    
 H2  0.388489991      0.908810019      0.246380001    
 C1  0.375290006      0.996060014      0.747850001    
 N1  0.378129989       5.02099991E-02  0.713259995    
 N1  0.345899999      0.985769987      0.813189983    
 C2  0.348830014       7.56200030E-02  0.759429991    
 C2  0.329200000       3.63700017E-02  0.820299983    
 H1  0.394369990      0.964519978      0.725750029    
 C3  0.298390001       5.14499992E-02  0.875039995    
 C3  0.337639987      0.129930004      0.753319979    
 C4  0.287200004      0.105760001      0.868939996    
 C4  0.306829989      0.145009995      0.808070004    
 H2  0.282160014       1.89900007E-02  0.925379992    
 H2  0.353870004      0.162389994      0.702989995    
 H3  0.261709988      0.118239999      0.914229989    
 H3  0.297569990      0.189950004      0.803020000    
 C1  0.613730013      0.995429993       2.58999993E-03
 N1  0.619369984      0.948029995      0.963259995    
 N1  0.651589990       1.24700004E-02   6.31899983E-02
 C2  0.663349986      0.934329987       1.21999998E-03
 C2  0.682980001      0.973580003       6.20899983E-02
 H1  0.582459986       1.72400009E-02  0.987299979    
 C3  0.727190018      0.969190001      0.109350003    
 C3  0.687950015      0.890709996      0.987630010    
 C4  0.751789987      0.925559998       9.57499966E-02
 C4  0.732169986      0.886319995       3.48800011E-02
 H2  0.743420005       1.64999999E-03  0.159679994    
 H2  0.671720028      0.858250022      0.937290013    
 H3  0.788370013      0.921930015      0.134839997    
 H3  0.752520025      0.850229979       2.36300007E-02
 C1  0.631590009       7.44999992E-03  0.494159997    
 N1  0.619369984      0.948029995      0.463259995    
 N1  0.651589990       1.24700004E-02  0.563189983    
 C2  0.632399976      0.913500011      0.515829980    
 C2  0.652029991      0.952740014      0.576699972    
 H1  0.625999987       4.65499982E-02  0.466749996    
 C3  0.667990029      0.929329991      0.637279987    
 C3  0.628750026      0.850849986      0.515569985    
 C4  0.664330006      0.866689980      0.637019992    
 C4  0.644710004      0.827440023      0.576150000    
 H2  0.684220016      0.961790025      0.687619984    
 H2  0.612519979      0.818390012      0.465229988    
 H3  0.677540004      0.847320020      0.687139988    
 H3  0.641690016      0.775610030      0.575929999    
 C1  0.378349990      0.375660002      0.997850001    
 N1  0.327039987      0.378500015      0.963259995    
 N1  0.359259993      0.346280009       6.31899983E-02
 C2  0.272329986      0.349209994       9.44000017E-03
 C2  0.291960001      0.329580009       7.03099966E-02
 H1  0.428970009      0.394739985      0.975740016    
 C3  0.246069998      0.298779994      0.125060007    
 C3  0.206829995      0.338019997       3.34000005E-03
 C4  0.180570006      0.287589997      0.118960001    
 C4  0.160940006      0.307220012       5.80900013E-02
 H2  0.262300014      0.282550007      0.175390005    
 H2  0.190599993      0.354250014      0.953000009    
 H3  0.142609999      0.262109995      0.164250001    
 H3  0.106749997      0.297960013       5.30500002E-02
 C1  0.374240011      0.366279989      0.494159997    
 N1  0.327039987      0.378500015      0.463259995    
 N1  0.359259993      0.346280009      0.563189983    
 C2  0.279469997      0.365469992      0.515829980    
 C2  0.299089998      0.345840007      0.576699972    
 C3  0.435640007      0.373959988      0.456499994    
 H1  0.274580002      0.331680000      0.628390014    
 H1  0.235220000      0.371030003      0.506320000    
 H2  0.422800004      0.323540002      0.430159986    
 H2  0.452300012      0.415360004      0.414160013    
 H2  0.478799999      0.388859987      0.496360004    
 C1   1.81000005E-03  0.622579992      0.247850001    
 N1   1.20999999E-02  0.651970029      0.313190013    
 N1  0.947660029      0.619740009      0.213259995    
 C2  0.961499989      0.668669999      0.320300013    
 C2  0.922249973      0.649049997      0.259429991    
 H1   3.33399996E-02  0.603489995      0.225749999    
 C3  0.867940009      0.660239995      0.253329992    
 C3  0.946420014      0.699490011      0.375039995    
 C4  0.852859974      0.691049993      0.308070004    
 C4  0.892109990      0.710680008      0.368939996    
 H2  0.835479975      0.644010007      0.202989995    
 H2  0.978879988      0.715719998      0.425379992    
 H3  0.807929993      0.700309992      0.303020000    
 H3  0.879639983      0.736169994      0.414229989    
 C1  0.987259984      0.607110023      0.758050025    
 N1   1.20999999E-02  0.651970029      0.813189983    
 N1  0.947660029      0.619740009      0.713259995    
 C2  0.986720026      0.695479989      0.802619994    
 C2  0.947470009      0.675859988      0.741750002    
 H1  0.997860014      0.565779984      0.750620008    
 C3  0.916180015      0.711530030      0.719510019    
 C3  0.994660020      0.750769973      0.841229975    
 C4  0.924120009      0.766810000      0.758120000    
 C4  0.963370025      0.786440015      0.818979979    
 H2  0.883719981      0.695299983      0.669170022    
 H2   2.71199998E-02  0.767000020      0.891560018    
 H3  0.898230016      0.796320021      0.739709973    
 H3  0.969940007      0.832180023      0.850920022    
 C1  0.986999989      0.356640011      0.991770029    
 N1  0.985390007      0.346280009       6.31899983E-02
 N1   4.98300008E-02  0.378500015      0.963259995    
 C2   5.10299988E-02  0.362560004       8.08399990E-02
 C2   9.02799964E-02  0.382180005       1.99699998E-02
 H1  0.943000019      0.348360002      0.960919976    
 C3  0.158319995      0.401089996       2.34999992E-02
 C3   7.98299983E-02  0.361849993      0.145209998    
 C4  0.187120005      0.400389999       8.78600031E-02
 C4  0.147870004      0.380769998      0.148729995    
 H2  0.190779999      0.417320013      0.973160028    
 H2   4.73700017E-02  0.345629990      0.195549995    
 H3  0.243410006      0.416040003       9.07799974E-02
 H3  0.171700001      0.380190015      0.201979995    
 C1  0.985679984      0.347380012      0.490839988    
 N1  0.985390007      0.346280009      0.563189983    
 N1   4.98300008E-02  0.378500015      0.463259995    
 C2   5.33200018E-02  0.378589988      0.582449973    
 C2   9.25699994E-02  0.398220003      0.521579981    
 H1  0.939769983      0.325800002      0.458660007    
 C3  0.162709996      0.431769997      0.526570022    
 C3   8.42199996E-02  0.392529994      0.648289979    
 C4  0.193609998      0.445710003      0.592410028    
 C4  0.154359996      0.426090002      0.653280020    
 H2  0.195170000      0.448000014      0.476240009    
 H2   5.17599992E-02  0.376300007      0.698629975    
 H3  0.251630008      0.473479986      0.596539974    
 H3  0.179920003      0.437620014      0.707750022    
 C1  0.395799994      0.376390010      0.263870001    
 N1  0.345899999      0.359629989      0.313190013    
 N1  0.378129989      0.327410012      0.213259995    
 C2  0.293660015      0.296380013      0.292540014    
 C2  0.313290000      0.276760012      0.231670007    
 H1  0.444370002      0.423640013      0.264800012    
 C3  0.269650012      0.214959994      0.200230002    
 C3  0.230409995      0.254200011      0.321949989    
 C4  0.206400007      0.172769994      0.229640007    
 C4  0.186770007      0.192399994      0.290499985    
 H2  0.285879999      0.198730007      0.149900004    
 H2  0.214169994      0.270429999      0.372280002    
 H3  0.170300007      0.121650003      0.203620002    
 H3  0.134440005      0.157499999      0.314830005    
 C1  0.390760005      0.379649997      0.758050025    
 N1  0.345899999      0.359629989      0.813189983    
 N1  0.378129989      0.327410012      0.713259995    
 C2  0.302390009      0.290730000      0.802619994    
 C2  0.322010010      0.271109998      0.741750002    
 H1  0.432090014      0.431589991      0.750620008    
 C3  0.286339998      0.204150006      0.719510019    
 C3  0.247099996      0.243389994      0.841229975    
 C4  0.231059998      0.156810001      0.758120000    
 C4  0.211429998      0.176430002      0.818979979    
 H2  0.302569985      0.187920004      0.669170022    
 H2  0.230869994      0.259620011      0.891560018    
 H3  0.201550007      0.101410002      0.739709973    
 H3  0.165690005      0.137260005      0.850920022    
 C1  0.619140029      0.996060014      0.247850001    
 N1  0.638239980      0.985769987      0.313190013    
 N1  0.670459986       5.02099991E-02  0.213259995    
 C2  0.705540001       3.63700017E-02  0.320300013    
 C2  0.725160003       7.56200030E-02  0.259429991    
 C3  0.549600005      0.952730000      0.217480004    
 H1  0.773959994      0.119609997      0.245839998    
 H1  0.734610021       4.08999994E-02  0.367909998    
 H2  0.547930002      0.908590019      0.186539993    
 H2  0.510580003      0.931729972      0.262439996    
 H2  0.537090003      0.984730005      0.180240005    
 C1  0.629499972      0.987380028      0.741770029    
 N1  0.638239980      0.985769987      0.813189983    
 N1  0.670459986       5.02099991E-02  0.713259995    
 C2  0.687600017       5.14100008E-02  0.830839992    
 C2  0.707220018       9.06499997E-02  0.769970000    
 H1  0.593770027      0.943369985      0.710919976    
 C3  0.756349981      0.158700004      0.773490012    
 C3  0.717100024       8.02100003E-02  0.895210028    
 C4  0.785849988      0.187500000      0.837859988    
 C4  0.766229987      0.148249999      0.898729980    
 H2  0.772570014      0.191149995      0.723150015    
 H2  0.700869977       4.77499999E-02  0.945550025    
 H3  0.826489985      0.243790001      0.840770006    
 H3  0.790639997      0.172079995      0.951979995    
 C1  0.376010001      0.979340017       1.38699999E-02
 N1  0.359259993       1.24700004E-02   6.31899983E-02
 N1  0.327039987      0.948029995      0.963259995    
 C2  0.296009988       1.47000002E-03   4.25500013E-02
 C2  0.276380002      0.962220013      0.981679976    
 H1  0.423260003      0.978020012       1.47900004E-02
 C3  0.214579999      0.944060028      0.950240016    
 C3  0.253829986       2.25399993E-02   7.19600022E-02
 C4  0.172399998      0.965120018      0.979650021    
 C4  0.192019999       4.37000021E-03   4.05200012E-02
 H2  0.198349997      0.911599994      0.899900019    
 H2  0.270060003       5.49999997E-02  0.122299999    
 H3  0.121270001      0.950100005      0.953639984    
 H3  0.157130003       2.18000002E-02   6.48500025E-02
 C1  0.368000001       1.08599998E-02  0.491769999    
 N1  0.359259993       1.24700004E-02  0.563189983    
 N1  0.327039987      0.948029995      0.463259995    
 C2  0.309890002      0.946839988      0.580839992    
 C2  0.290270001      0.907589972      0.519970000    
 H1  0.403730005       5.48699982E-02  0.460920006    
 C3  0.241139993      0.839550018      0.523490012    
 C3  0.280389994      0.918030024      0.645210028    
 C4  0.211630002      0.810750008      0.587859988    
 C4  0.231260002      0.849990010      0.648729980    
 H2  0.224910006      0.807089984      0.473150015    
 H2  0.296620011      0.950489998      0.695550025    
 H3  0.170990005      0.754459977      0.590770006    
 H3  0.206839994      0.826160014      0.701979995    
 C1  0.601700008      0.621850014       1.38699999E-02
 N1  0.651589990      0.638610005       6.31899983E-02
 N1  0.619369984      0.670830011      0.963259995    
 C2  0.703830004      0.701860011       4.25500013E-02
 C2  0.684210002      0.721490026      0.981679976    
 H1  0.553129971      0.574599981       1.47900004E-02
 C3  0.727840006      0.783290029      0.950250030    
 C3  0.767080009      0.744050026       7.19600022E-02
 C4  0.791090012      0.825479984      0.979659975    
 C4  0.810720026      0.805850029       4.05200012E-02
 H2  0.711610019      0.799520016      0.899909973    
 H2  0.783309996      0.727819979      0.122299999    
 H3  0.827189982      0.876609981      0.953649998    
 H3  0.863039970      0.840749979       6.48500025E-02
 C1  0.606729984      0.618589997      0.508050025    
 N1  0.651589990      0.638610005      0.563189983    
 N1  0.619369984      0.670830011      0.463259995    
 C2  0.695100009      0.707509995      0.552630007    
 C2  0.675480008      0.727140009      0.491759986    
 H1  0.565410018      0.566659987      0.500609994    
 C3  0.711149991      0.794099987      0.469520003    
 C3  0.750389993      0.754849970      0.591239989    
 C4  0.766430020      0.841440022      0.508130014    
 C4  0.786050022      0.821810007      0.569000006    
 H2  0.694920003      0.810329974      0.419189990    
 H2  0.766619980      0.738619983      0.641579986    
 H3  0.795939982      0.896839976      0.489740014    
 H3  0.831789970      0.860979974      0.600939989    
 C1  0.188400000      0.378430009      0.380750000    
 N1  0.247630000      0.396869987      0.345519990    
 N1  0.147609994      0.396869987      0.345519990    
 C2  0.244059995      0.428820014      0.284469992    
 C2  0.183139995      0.428820014      0.284469992    
 H1  0.175139993      0.351909995      0.431400001    
 C3  0.167270005      0.458000004      0.228729993    
 C3  0.289090008      0.458000004      0.228729993    
 C4  0.212310001      0.487170011      0.172989994    
 C4  0.273229986      0.487170011      0.172989994    
 H2  0.116889998      0.458000004      0.228729993    
 H2  0.339480013      0.458000004      0.228729993    
 H3  0.199190006      0.511309981      0.126880005    
 H3  0.310490012      0.511309981      0.126880005    
 C1  0.211549997      0.424730003      0.873210013    
 N1  0.247630000      0.396869987      0.845520020    
 N1  0.147609994      0.396869987      0.845520020    
 C2  0.203940004      0.348580003      0.797540009    
 C2  0.143010005      0.348580003      0.797540009    
 H1  0.231580004      0.464800000      0.913020015    
 C3   9.05200019E-02  0.304490000      0.753729999    
 C3  0.212339997      0.304490000      0.753729999    
 C4   9.89300013E-02  0.260410011      0.709919989    
 C4  0.159850001      0.260410011      0.709919989    
 H2   4.01399992E-02  0.304490000      0.753729999    
 H2  0.262719989      0.304490000      0.753729999    
 H3   5.55000007E-02  0.223940000      0.673680007    
 H3  0.166810006      0.223940000      0.673680007    
 C1  0.789849997      0.581330001      0.129789993    
 N1  0.749859989      0.601379991       9.55300033E-02
 N1  0.849889994      0.601379991       9.55300033E-02
 C2  0.786790013      0.636129975       3.61599997E-02
 C2  0.847710013      0.636129975       3.61599997E-02
 H1  0.775430024      0.552500010      0.179040000    
 C3  0.894020021      0.667850018      0.981949985    
 C3  0.772199988      0.667850018      0.981949985    
 C4  0.879440010      0.699580014      0.927749991    
 C4  0.818509996      0.699580014      0.927749991    
 H2  0.944400012      0.667850018      0.981949985    
 H2  0.721819997      0.667850018      0.981949985    
 H3  0.917750001      0.725820005      0.882910013    
 H3  0.806439996      0.725820005      0.882910013    
 C1  0.799409986      0.600440025      0.635649979    
 N1  0.749859989      0.601379991      0.595529974    
 N1  0.849889994      0.601379991      0.595529974    
 C2  0.770229995      0.602999985      0.525990009    
 C2  0.831149995      0.602999985      0.525990009    
 H1  0.798730016      0.599099994      0.693340003    
 C3  0.862339973      0.604489982      0.462520003    
 C3  0.740520000      0.604489982      0.462520003    
 C4  0.832629979      0.605970025      0.399040014    
 C4  0.771709979      0.605970025      0.399040014    
 H2  0.912720025      0.604489982      0.462520003    
 H2  0.690129995      0.604489982      0.462520003    
 H3  0.858430028      0.607190013      0.346520007    
 H3  0.747129977      0.607190013      0.346520007    
 C1  0.563589990      0.781549990      0.354970008    
 N1  0.601000011      0.850260019      0.345519990    
 N1  0.601000011      0.750240028      0.345519990    
 C2  0.665830016      0.863129973      0.329140007    
 C2  0.665830016      0.802209973      0.329140007    
 H1  0.509800017      0.754649997      0.368570000    
 C3  0.725019991      0.801349998      0.314179987    
 C3  0.725019991      0.923169971      0.314179987    
 C4  0.784210026      0.861389995      0.299230009    
 C4  0.784210026      0.922309995      0.299230009    
 H2  0.725019991      0.750970006      0.314179987    
 H2  0.725019991      0.973550022      0.314179987    
 H3  0.833169997      0.860679984      0.286859989    
 H3  0.833169997      0.971989989      0.286859989    
 C1  0.567210019      0.783360004      0.864750028    
 N1  0.601000011      0.850260019      0.845520020    
 N1  0.601000011      0.750240028      0.845520020    
 C2  0.659560025      0.859990001      0.812200010    
 C2  0.659560025      0.799070001      0.812200010    
 H1  0.518630028      0.759069979      0.892390013    
 C3  0.713020027      0.795350015      0.781790018    
 C3  0.713020027      0.917169988      0.781790018    
 C4  0.766470015      0.852530003      0.751370013    
 C4  0.766470015      0.913450003      0.751370013    
 H2  0.713020027      0.744960010      0.781790018    
 H2  0.713020027      0.967549980      0.781790018    
 H3  0.810699999      0.849449992      0.726199985    
 H3  0.810699999      0.960749984      0.726199985    
 C1  0.214509994      0.783360004      0.364749998    
 N1  0.147609994      0.750240028      0.345519990    
 N1  0.247630000      0.850260019      0.345519990    
 C2  0.137879997      0.799070001      0.312200010    
 C2  0.198799998      0.859990001      0.312200010    
 H1  0.238800004      0.759069979      0.392390013    
 C3  0.202519998      0.917169988      0.281789988    
 C3   8.07000026E-02  0.795350015      0.281789988    
 C4  0.145339996      0.913450003      0.251370013    
 C4   8.44200030E-02  0.852530003      0.251370013    
 H2  0.252909988      0.967549980      0.281789988    
 H2   3.03199999E-02  0.744960010      0.281789988    
 H3  0.148420006      0.960749984      0.226199999    
 H3   3.71199995E-02  0.849449992      0.226199999    
 C1  0.211549997      0.786319971      0.873210013    
 N1  0.147609994      0.750240028      0.845520020    
 N1  0.247630000      0.850260019      0.845520020    
 C2  0.143010005      0.793929994      0.797540009    
 C2  0.203940004      0.854860008      0.797540009    
 C2  0.239069998      0.758800030      0.927909970    
 H1  0.219150007      0.900889993      0.766910017    
 H1   9.69799981E-02  0.778720021      0.766910017    
 H2  0.227170005      0.770699978      0.983250022    
 H2  0.214420006      0.701179981      0.921159983    
 H2  0.296689987      0.783450007      0.921159983    
 C1  0.785939991      0.211930007      0.123209998    
 N1  0.849879980      0.247999996       9.55199972E-02
 N1  0.749859989      0.147980005       9.55199972E-02
 C2  0.854480028      0.204310000       4.75500003E-02
 C2  0.793560028      0.143380001       4.75500003E-02
 H1  0.765900016      0.231959999      0.163010001    
 C3  0.785160005       9.08899978E-02   3.74999992E-03
 C3  0.906979978      0.212709993       3.74999992E-03
 C4  0.837660015       9.92899984E-02  0.959949970    
 C4  0.898580015      0.160219997      0.959949970    
 H2  0.734780014       4.05099988E-02   3.74999992E-03
 H2  0.957360029      0.263099998       3.74999992E-03
 H3  0.830709994       5.58700003E-02  0.923709989    
 H3  0.942009985      0.167170003      0.923709989    
 C1  0.782980025      0.214890003      0.614750028    
 N1  0.849879980      0.247999996      0.595520020    
 N1  0.749859989      0.147980005      0.595520020    
 C2  0.859619975      0.199180007      0.562210023    
 C2  0.798699975      0.138249993      0.562210023    
 H1  0.758679986      0.239179999      0.642379999    
 C3  0.794979990       8.10699984E-02  0.531799972    
 C3  0.916800022      0.202900007      0.531799972    
 C4  0.852159977       8.47899988E-02  0.501399994    
 C4  0.913079977      0.145720005      0.501399994    
 H2  0.744599998       3.06899995E-02  0.531799972    
 H2  0.967180014      0.253280014      0.531799972    
 H3  0.849089980       3.74899991E-02  0.476240009    
 H3  0.960389972      0.148800001      0.476240009    
 C1  0.397430003      0.198459998      0.135649994    
 N1  0.396490008      0.147980005       9.55300033E-02
 N1  0.396490008      0.247999996       9.55300033E-02
 C2  0.394870013      0.166720003       2.59900000E-02
 C2  0.394870013      0.227640003       2.59900000E-02
 H1  0.398770005      0.199129999      0.193340003    
 C3  0.393379986      0.257349998      0.962520003    
 C3  0.393379986      0.135529995      0.962520003    
 C4  0.391900003      0.226160005      0.899039984    
 C4  0.391900003      0.165240005      0.899039984    
 H2  0.393379986      0.307729989      0.962520003    
 H2  0.393379986       8.51399973E-02  0.962520003    
 H3  0.390679985      0.250739992      0.846520007    
 H3  0.390679985      0.139430001      0.846520007    
 C1  0.416539997      0.208020002      0.629790008    
 N1  0.396490008      0.147980005      0.595529974    
 N1  0.396490008      0.247999996      0.595529974    
 C2  0.361739993      0.150150001      0.536159992    
 C2  0.361739993      0.211080000      0.536159992    
 H1  0.445369989      0.222430006      0.679040015    
 C3  0.330020010      0.225659996      0.481950015    
 C3  0.330020010      0.103840001      0.481950015    
 C4  0.298290014      0.179350004      0.427749991    
 C4  0.298290014      0.118430004      0.427749991    
 H2  0.330020010      0.276050001      0.481950015    
 H2  0.330020010       5.34599982E-02  0.481950015    
 H3  0.272049993      0.191420004      0.382910013    
 H3  0.272049993       8.01199973E-02  0.382910013    
 C1   7.41000026E-02  0.536800027      0.376230001    
 N1  0.111649998      0.605589986      0.367399991    
 N1  0.111649998      0.505569994      0.367399991    
 C2  0.176730007      0.618570030      0.352090001    
 C2  0.176730007      0.557650030      0.352090001    
 H1   2.01200005E-02  0.509809971      0.388929993    
 C3  0.236129999      0.556909978      0.338120013    
 C3  0.236129999      0.678730011      0.338120013    
 C4  0.295540005      0.617060006      0.324149996    
 C4  0.295540005      0.677980006      0.324149996    
 H2  0.236129999      0.506519973      0.338120013    
 H2  0.236129999      0.729110003      0.338120013    
 H3  0.344689995      0.616439998      0.312590003    
 H3  0.344689995      0.727750003      0.312590003    
 C1   8.33700001E-02  0.541429996      0.894630015    
 N1  0.111649998      0.605589986      0.867399991    
 N1  0.111649998      0.505569994      0.867399991    
 C2  0.160669997      0.610549986      0.820219994    
 C2  0.160669997      0.549619973      0.820219994    
 H1   4.27099988E-02  0.521099985      0.933770001    
 C3  0.205410004      0.541549981      0.777149975    
 C3  0.205410004      0.663370013      0.777149975    
 C4  0.250160009      0.594370008      0.734080017    
 C4  0.250160009      0.655290008      0.734080017    
 H2  0.205410004      0.491160005      0.777149975    
 H2  0.205410004      0.713750005      0.777149975    
 H3  0.287180007      0.587689996      0.698450029    
 H3  0.287180007      0.698989987      0.698450029    
 C1  0.897270024      0.448390007      0.155719995    
 N1  0.885839999      0.392659992      0.117399998    
 N1  0.885839999      0.492680013      0.117399998    
 C2  0.866020024      0.402300000       5.09900004E-02
 C2  0.866020024      0.463220000       5.09900004E-02
 C3  0.919860005      0.459679991      0.231419995    
 H1  0.853370011      0.487520009       8.60999990E-03
 H1  0.853370011      0.365350008       8.60999990E-03
 H2  0.873250008      0.436379999      0.267720014    
 H2  0.951810002      0.434520006      0.242229998    
 H2  0.951810002      0.516789973      0.242229998    
 C1  0.906400025      0.452950001      0.651329994    
 N1  0.885839999      0.392659992      0.617399991    
 N1  0.885839999      0.492680013      0.617399991    
 C2  0.850210011      0.394389987      0.558600008    
 C2  0.850210011      0.455309987      0.558600008    
 H1  0.935959995      0.467729986      0.700119972    
 C3  0.817680001      0.469500005      0.504920006    
 C3  0.817680001      0.347680002      0.504920006    
 C4  0.785149992      0.422789991      0.451240003    
 C4  0.785149992      0.361860007      0.451240003    
 H2  0.817680001      0.519879997      0.504920006    
 H2  0.817680001      0.297300011      0.504920006    
 H3  0.758239985      0.434520006      0.406830013    
 H3  0.758239985      0.323220015      0.406830013    
 C1  0.455350012      0.542519987      0.337909997    
 N1  0.392280012      0.505569994      0.367399991    
 N1  0.492300004      0.605589986      0.367399991    
 C2  0.389209986      0.547739983      0.418500006    
 C2  0.450129986      0.608659983      0.418500006    
 H1  0.474119991      0.523750007      0.295509994    
 C3  0.459919989      0.659770012      0.465160012    
 C3  0.338099986      0.537949979      0.465160012    
 C4  0.408820003      0.649969995      0.511810005    
 C4  0.347900003      0.589049995      0.511810005    
 H2  0.510309994      0.710150003      0.465160012    
 H2  0.287719995      0.487560004      0.465160012    
 H3  0.416920006      0.692250013      0.550409973    
 H3  0.305620015      0.580950022      0.550409973    
 C1  0.448009998      0.549860001      0.905730009    
 N1  0.392280012      0.505569994      0.867399991    
 N1  0.492300004      0.605589986      0.867399991    
 C2  0.401919991      0.535030007      0.800989985    
 C2  0.462839991      0.595950007      0.800989985    
 H1  0.456239998      0.541630030      0.960820019    
 C3  0.484239995      0.635450006      0.740360022    
 C3  0.362419993      0.513629973      0.740360022    
 C4  0.444750011      0.614049971      0.679729998    
 C4  0.383819997      0.553120017      0.679729998    
 H2  0.534630001      0.685829997      0.740360022    
 H2  0.312040001      0.463239998      0.740360022    
 H3  0.462449998      0.646719992      0.629580021    
 H3  0.351150006      0.535420001      0.629580021    
 C1  0.456440002      0.914499998      0.394630015    
 N1  0.492300004      0.886219978      0.367399991    
 N1  0.392280012      0.886219978      0.367399991    
 C2  0.448249996      0.837199986      0.320219994    
 C2  0.387320012      0.837199986      0.320219994    
 H1  0.476770014      0.955160022      0.433770001    
 C3  0.334500015      0.792460024      0.277150005    
 C3  0.456319988      0.792460024      0.277150005    
 C4  0.342579991      0.747709990      0.234080002    
 C4  0.403499991      0.747709990      0.234080002    
 H2  0.284119993      0.792460024      0.277150005    
 H2  0.506709993      0.792460024      0.277150005    
 H3  0.298880011      0.710690022      0.198449999    
 H3  0.410180002      0.710690022      0.198449999    
 C1  0.448009998      0.897650003      0.905730009    
 N1  0.492300004      0.886219978      0.867399991    
 N1  0.392280012      0.886219978      0.867399991    
 C2  0.462839991      0.866389990      0.800989985    
 C2  0.401919991      0.866389990      0.800989985    
 H1  0.456239998      0.914099991      0.960820019    
 C3  0.362419993      0.848299980      0.740360022    
 C3  0.484239995      0.848299980      0.740360022    
 C4  0.383819997      0.830200016      0.679729998    
 C4  0.444750011      0.830200016      0.679729998    
 H2  0.312040001      0.848299980      0.740360022    
 H2  0.534630001      0.848299980      0.740360022    
 H3  0.351150006      0.815230012      0.629580021    
 H3  0.462449998      0.815230012      0.629580021    
 C1  0.549480021      0.100589998      0.155729994    
 N1  0.505190015      0.112020001      0.117399998    
 N1  0.605210006      0.112020001      0.117399998    
 C2  0.534650028      0.131850004       5.09900004E-02
 C2  0.595570028      0.131850004       5.09900004E-02
 H1  0.541260004       8.41400027E-02  0.210820004    
 C3  0.635070026      0.149939999      0.990360022    
 C3  0.513249993      0.149939999      0.990360022    
 C4  0.613669991      0.168040007      0.929729998    
 C4  0.552749991      0.168040007      0.929729998    
 H2  0.685450017      0.149939999      0.990360022    
 H2  0.462870002      0.149939999      0.990360022    
 H3  0.646350026      0.183009997      0.879580021    
 H3  0.535040021      0.183009997      0.879580021    
 C1  0.544920027       9.14599970E-02  0.651329994    
 N1  0.505190015      0.112020001      0.617399991    
 N1  0.605210006      0.112020001      0.617399991    
 C2  0.542559981      0.147660002      0.558600008    
 C2  0.603479981      0.147660002      0.558600008    
 H1  0.530139983       6.19000010E-02  0.700110018    
 C3  0.650189996      0.180189997      0.504920006    
 C3  0.528370023      0.180189997      0.504920006    
 C4  0.636009991      0.212720007      0.451240003    
 C4  0.575089991      0.212720007      0.451240003    
 H2  0.700580001      0.180189997      0.504920006    
 H2  0.477990001      0.180189997      0.504920006    
 H3  0.674660027      0.239629999      0.406839997    
 H3  0.563350022      0.239629999      0.406839997    
 C1  0.536430001      0.461439997      0.126230001    
 N1  0.605210006      0.492680013      0.117399998    
 N1  0.505190015      0.392659992      0.117399998    
 C2  0.618200004      0.440589994      0.102090001    
 C2  0.557280004      0.379669994      0.102090001    
 H1  0.509429991      0.488440007      0.138940006    
 C3  0.556529999      0.319519997       8.81099999E-02
 C3  0.678349972      0.441339999       8.81099999E-02
 C4  0.616680026      0.320270002       7.41399974E-02
 C4  0.677600026      0.381190002       7.41399974E-02
 H2  0.506150007      0.269140005       8.81099999E-02
 H2  0.728730023      0.491719991       8.81099999E-02
 H3  0.616060019      0.270500004       6.25699982E-02
 H3  0.727370024      0.381810009       6.25699982E-02
 C1  0.535969973      0.461899996      0.615800023    
 N1  0.605210006      0.492680013      0.617399991    
 N1  0.505190015      0.392659992      0.617399991    
 C2  0.618990004      0.439799994      0.620169997    
 C2  0.558070004      0.378879994      0.620169997    
 H1  0.508319974      0.489549994      0.613499999    
 C3  0.558040023      0.317999989      0.622699976    
 C3  0.679870009      0.439830005      0.622699976    
 C4  0.618920028      0.318030000      0.625230014    
 C4  0.679840028      0.378950000      0.625230014    
 H2  0.507659972      0.267619997      0.622699976    
 H2  0.730250001      0.490209997      0.622699976    
 H3  0.618900001      0.267670006      0.627319992    
 H3  0.730199993      0.378969997      0.627319992    
