data_cif
_audit_creation_method 'generated by iGOR'
_symmetry_space_group_name_H-M     'P 1'
_symmetry_Int_Tables_number        1
_symmetry_cell_setting             triclinic
_cell_length_a                     32.7643013
_cell_length_b                     32.7643013
_cell_length_c                     32.7643013
_cell_angle_alpha                  90.0000000
_cell_angle_beta                   90.0000000
_cell_angle_gamma                  90.0000000
loop_
_atom_site_label
_atom_site_fract_x
_atom_site_fract_y
_atom_site_fract_z
 Zn  0.625000000      0.250000000       0.00000000    
 Zn  0.250000000      0.375000000       0.00000000    
 Zn  0.875000000      0.750000000       0.00000000    
 Zn  0.625000000      0.750000000       0.00000000    
 Zn  0.250000000      0.875000000       0.00000000    
 Zn  0.250000000      0.625000000       0.00000000    
 Zn  0.375000000      0.750000000       0.00000000    
 Zn  0.125000000      0.750000000       0.00000000    
 Zn  0.375000000      0.250000000       0.00000000    
 Zn  0.750000000      0.875000000       0.00000000    
 Zn  0.750000000      0.625000000       0.00000000    
 Zn  0.125000000      0.250000000       0.00000000    
 Zn  0.875000000      0.250000000       0.00000000    
 Zn  0.750000000      0.125000000       0.00000000    
 Zn  0.750000000      0.375000000       0.00000000    
 Zn  0.250000000      0.125000000       0.00000000    
 Zn  0.750000000       0.00000000      0.125000000    
 Zn   0.00000000      0.250000000      0.125000000    
 Zn  0.750000000      0.500000000      0.125000000    
 Zn  0.250000000      0.500000000      0.125000000    
 Zn   0.00000000      0.750000000      0.125000000    
 Zn  0.500000000      0.250000000      0.125000000    
 Zn  0.500000000      0.750000000      0.125000000    
 Zn  0.250000000       0.00000000      0.125000000    
 Zn  0.750000000      0.500000000      0.625000000    
 Zn   0.00000000      0.250000000      0.625000000    
 Zn  0.250000000      0.500000000      0.625000000    
 Zn  0.250000000       0.00000000      0.625000000    
 Zn  0.750000000       0.00000000      0.625000000    
 Zn  0.500000000      0.750000000      0.625000000    
 Zn   0.00000000      0.750000000      0.625000000    
 Zn  0.500000000      0.250000000      0.625000000    
 Zn   0.00000000      0.125000000      0.750000000    
 Zn  0.875000000       0.00000000      0.750000000    
 Zn  0.125000000      0.500000000      0.750000000    
 Zn   0.00000000      0.875000000      0.750000000    
 Zn  0.625000000       0.00000000      0.750000000    
 Zn   0.00000000      0.625000000      0.750000000    
 Zn  0.375000000       0.00000000      0.750000000    
 Zn  0.500000000      0.625000000      0.750000000    
 Zn  0.500000000      0.375000000      0.750000000    
 Zn  0.875000000      0.500000000      0.750000000    
 Zn  0.625000000      0.500000000      0.750000000    
 Zn  0.500000000      0.125000000      0.750000000    
 Zn   0.00000000      0.375000000      0.750000000    
 Zn  0.500000000      0.875000000      0.750000000    
 Zn  0.125000000       0.00000000      0.750000000    
 Zn  0.375000000      0.500000000      0.750000000    
 Zn   0.00000000      0.750000000      0.875000000    
 Zn  0.250000000       0.00000000      0.875000000    
 Zn  0.250000000      0.500000000      0.875000000    
 Zn  0.750000000      0.500000000      0.875000000    
 Zn  0.750000000       0.00000000      0.875000000    
 Zn  0.500000000      0.250000000      0.875000000    
 Zn   0.00000000      0.250000000      0.875000000    
 Zn  0.500000000      0.750000000      0.875000000    
 Zn  0.625000000      0.250000000      0.250000000    
 Zn  0.375000000      0.250000000      0.250000000    
 Zn  0.375000000      0.750000000      0.250000000    
 Zn  0.750000000      0.875000000      0.250000000    
 Zn  0.125000000      0.250000000      0.250000000    
 Zn  0.250000000      0.625000000      0.250000000    
 Zn  0.875000000      0.250000000      0.250000000    
 Zn  0.250000000      0.125000000      0.250000000    
 Zn  0.750000000      0.625000000      0.250000000    
 Zn  0.750000000      0.375000000      0.250000000    
 Zn  0.250000000      0.875000000      0.250000000    
 Zn  0.250000000      0.375000000      0.250000000    
 Zn  0.750000000      0.125000000      0.250000000    
 Zn  0.625000000      0.750000000      0.250000000    
 Zn  0.875000000      0.750000000      0.250000000    
 Zn  0.125000000      0.750000000      0.250000000    
 Zn  0.500000000      0.250000000      0.375000000    
 Zn  0.250000000      0.500000000      0.375000000    
 Zn  0.250000000       0.00000000      0.375000000    
 Zn  0.500000000      0.750000000      0.375000000    
 Zn   0.00000000      0.250000000      0.375000000    
 Zn  0.750000000       0.00000000      0.375000000    
 Zn   0.00000000      0.750000000      0.375000000    
 Zn  0.750000000      0.500000000      0.375000000    
 Zn   0.00000000      0.625000000      0.500000000    
 Zn   0.00000000      0.375000000      0.500000000    
 Zn  0.125000000      0.500000000      0.500000000    
 Zn   0.00000000      0.125000000      0.500000000    
 Zn  0.875000000      0.500000000      0.500000000    
 Zn   0.00000000      0.875000000      0.500000000    
 Zn  0.625000000      0.500000000      0.500000000    
 Zn  0.500000000      0.375000000      0.500000000    
 Zn  0.500000000      0.625000000      0.500000000    
 Zn  0.125000000       0.00000000      0.500000000    
 Zn  0.875000000       0.00000000      0.500000000    
 Zn  0.375000000      0.500000000      0.500000000    
 Zn  0.375000000       0.00000000      0.500000000    
 Zn  0.625000000       0.00000000      0.500000000    
 Zn  0.500000000      0.125000000      0.500000000    
 Zn  0.500000000      0.875000000      0.500000000    
 C1  0.194900006      0.305099994       4.80999984E-03
 N1  0.157079995      0.294079989       1.78999994E-02
 N1  0.205919996      0.342920005       1.78999994E-02
 C2  0.143409997      0.326840013       4.05699983E-02
 C2  0.173160002      0.356590003       4.05699983E-02
 H1  0.214149997      0.285849988      0.986000001    
 C3  0.166840002      0.392650008       6.12699986E-02
 C3  0.107349999      0.333160013       6.12699986E-02
 C4  0.130779997      0.398970008       8.19699988E-02
 C4  0.101030000      0.369219989       8.19699988E-02
 H2  0.191440001      0.417250007       6.12699986E-02
 H2   8.27500001E-02  0.308560014       6.12699986E-02
 H3  0.125550002      0.428799987       9.90900025E-02
 H3   7.11999983E-02  0.374449998       9.90900025E-02
 C1  0.696829975      0.803170025       1.01600001E-02
 N1  0.705919981      0.842920005       1.78999994E-02
 N1  0.657079995      0.794080019       1.78999994E-02
 C2  0.669799984      0.859950006       3.13000008E-02
 C2  0.640049994      0.830200016       3.13000008E-02
 H1  0.718879998      0.781120002      0.999040008    
 C3  0.600929976      0.839579999       4.35400009E-02
 C3  0.660420001      0.899070024       4.35400009E-02
 C4  0.591539979      0.878709972       5.57800010E-02
 C4  0.621290028      0.908460021       5.57800010E-02
 H2  0.576319993      0.814979970       4.35400009E-02
 H2  0.685020030      0.923680007       4.35400009E-02
 H3  0.559170008      0.886479974       6.58999979E-02
 H3  0.613520026      0.940829992       6.58999979E-02
 C1  0.302269995      0.197730005       1.60399992E-02
 N1  0.294079989      0.157079995       1.78999994E-02
 N1  0.342920005      0.205919996       1.78999994E-02
 C2  0.331739992      0.138510004       2.11200006E-02
 C2  0.361490011      0.168259993       2.11200006E-02
 H1  0.278939992      0.221059993       1.33600002E-02
 C3  0.402040005      0.157450005       2.40599997E-02
 C3  0.342550009       9.79600027E-02   2.40599997E-02
 C4  0.412840009      0.116910003       2.70000007E-02
 C4  0.383089989       8.71599987E-02   2.70000007E-02
 H2  0.426640004      0.182060003       2.40599997E-02
 H2  0.317939997       7.33600035E-02   2.40599997E-02
 H3  0.446379989      0.107979998       2.94300001E-02
 H3  0.392019987       5.36199994E-02   2.94300001E-02
 C1  0.302269995      0.697730005       1.60399992E-02
 N1  0.342920005      0.705919981       1.78999994E-02
 N1  0.294079989      0.657079995       1.78999994E-02
 C2  0.361490011      0.668259978       2.11200006E-02
 C2  0.331739992      0.638509989       2.11200006E-02
 H1  0.278939992      0.721059978       1.33600002E-02
 C3  0.342550009      0.597959995       2.40599997E-02
 C3  0.402040005      0.657450020       2.40599997E-02
 C4  0.383089989      0.587159991       2.70000007E-02
 C4  0.412840009      0.616909981       2.70000007E-02
 H2  0.317939997      0.573360026       2.40599997E-02
 H2  0.426640004      0.682060003       2.40599997E-02
 H3  0.392019987      0.553619981       2.94300001E-02
 H3  0.446379989      0.607980013       2.94300001E-02
 C1  0.197730005      0.802269995       1.60399992E-02
 N1  0.157079995      0.794080019       1.78999994E-02
 N1  0.205919996      0.842920005       1.78999994E-02
 C2  0.138510004      0.831740022       2.11200006E-02
 C2  0.168259993      0.861490011       2.11200006E-02
 H1  0.221059993      0.778940022       1.33600002E-02
 C3  0.157450005      0.902040005       2.40599997E-02
 C3   9.79600027E-02  0.842549980       2.40599997E-02
 C4  0.116910003      0.912840009       2.70000007E-02
 C4   8.71599987E-02  0.883090019       2.70000007E-02
 H2  0.182060003      0.926639974       2.40599997E-02
 H2   7.33600035E-02  0.817939997       2.40599997E-02
 H3  0.107979998      0.946380019       2.94300001E-02
 H3   5.36199994E-02  0.892019987       2.94300001E-02
 C1  0.819809973      0.180189997      0.994949996    
 N1  0.794080019      0.157079995       1.78999994E-02
 N1  0.842920005      0.205919996       1.78999994E-02
 C2  0.801349998      0.168899998       5.76599985E-02
 C2  0.831099987      0.198650002       5.76599985E-02
 H1  0.821709991      0.178289995      0.961960018    
 C3  0.843890011      0.215599999       9.39700007E-02
 C3  0.784399986      0.156110004       9.39700007E-02
 C4  0.826940000      0.202810004      0.130270004    
 C4  0.797190011      0.173060000      0.130270004    
 H2  0.868489981      0.240209997       9.39700007E-02
 H2  0.759790003      0.131510004       9.39700007E-02
 H3  0.837520003      0.216839999      0.160310000    
 H3  0.783159971      0.162479997      0.160310000    
 C1  0.697730005      0.302269995       1.60399992E-02
 N1  0.705919981      0.342920005       1.78999994E-02
 N1  0.657079995      0.294079989       1.78999994E-02
 C2  0.668259978      0.361490011       2.11200006E-02
 C2  0.638509989      0.331739992       2.11200006E-02
 H1  0.721059978      0.278939992       1.33600002E-02
 C3  0.597959995      0.342550009       2.40599997E-02
 C3  0.657450020      0.402040005       2.40599997E-02
 C4  0.587159991      0.383089989       2.70000007E-02
 C4  0.616909981      0.412840009       2.70000007E-02
 H2  0.573360026      0.317939997       2.40599997E-02
 H2  0.682060003      0.426640004       2.40599997E-02
 H3  0.553619981      0.392019987       2.94300001E-02
 H3  0.607980013      0.446379989       2.94300001E-02
 C1  0.819809973      0.680190027      0.994949996    
 N1  0.794080019      0.657079995       1.78999994E-02
 N1  0.842920005      0.705919981       1.78999994E-02
 C2  0.801349998      0.668900013       5.76599985E-02
 C2  0.831099987      0.698650002       5.76599985E-02
 H1  0.821709991      0.678290009      0.961960018    
 C3  0.843890011      0.715600014       9.39700007E-02
 C3  0.784399986      0.656109989       9.39700007E-02
 C4  0.826940000      0.702809989      0.130270004    
 C4  0.797190011      0.673060000      0.130270004    
 H2  0.868489981      0.740209997       9.39700007E-02
 H2  0.759790003      0.631510019       9.39700007E-02
 H3  0.837520003      0.716840029      0.160310000    
 H3  0.783159971      0.662479997      0.160310000    
 C1   5.79599999E-02  0.249650002       5.79599999E-02
 N1   4.40800004E-02  0.232099995       9.29199979E-02
 N1   9.29199979E-02  0.232099995       4.40800004E-02
 C2   7.19000027E-02  0.201710001      0.101650000    
 C2  0.101650000      0.201710001       7.19000027E-02
 H1   4.28000018E-02  0.274859995       4.28000018E-02
 C3  0.133200005      0.173960000       7.37100020E-02
 C3   7.37100020E-02  0.173960000      0.133200005    
 C4  0.135010004      0.146200001      0.105260000    
 C4  0.105260000      0.146200001      0.135010004    
 H2  0.157800004      0.173960000       4.91099991E-02
 H2   4.91099991E-02  0.173960000      0.157800004    
 H3  0.161109999      0.123250000      0.106760003    
 H3  0.106760003      0.123250000      0.161109999    
 C1  0.557959974      0.749650002       5.79599999E-02
 N1  0.544080019      0.732100010       9.29199979E-02
 N1  0.592920005      0.732100010       4.40800004E-02
 C2  0.571900010      0.701709986      0.101650000    
 C2  0.601650000      0.701709986       7.19000027E-02
 H1  0.542800009      0.774860024       4.28000018E-02
 C3  0.633199990      0.673959970       7.37100020E-02
 C3  0.573710024      0.673959970      0.133200005    
 C4  0.635010004      0.646200001      0.105260000    
 C4  0.605260015      0.646200001      0.135010004    
 H2  0.657800019      0.673959970       4.91099991E-02
 H2  0.549109995      0.673959970      0.157800004    
 H3  0.661109984      0.623250008      0.106760003    
 H3  0.606760025      0.623250008      0.161109999    
 C1   7.77499974E-02  0.751049995       7.77499974E-02
 N1   4.40800004E-02  0.732100010       9.29199979E-02
 N1   9.29199979E-02  0.732100010       4.40800004E-02
 C2   3.75900008E-02  0.699280024       6.73400015E-02
 C2   6.73400015E-02  0.699280024       3.75900008E-02
 H1   9.10499990E-02  0.778280020       9.10499990E-02
 C3   6.75799996E-02  0.669309974       8.08999967E-03
 C3   8.08999967E-03  0.669309974       6.75799996E-02
 C4   3.80700007E-02  0.639339983       8.32000002E-03
 C4   8.32000002E-03  0.639339983       3.80700007E-02
 H2   9.21799988E-02  0.669309974      0.983479977    
 H2  0.983479977      0.669309974       9.21799988E-02
 H3   3.82600017E-02  0.614539981      0.983910024    
 H3  0.983910024      0.614539981       3.82600017E-02
 C1  0.946829975      0.260159999       5.31699993E-02
 N1  0.955919981      0.267899990       9.29199979E-02
 N1  0.907079995      0.267899990       4.40800004E-02
 C2  0.919799984      0.281300008      0.109949999    
 C2  0.890049994      0.281300008       8.02000016E-02
 H1  0.968879998      0.249039993       3.11200004E-02
 C3  0.850929976      0.293540001       8.95799994E-02
 C3  0.910420001      0.293540001      0.149069995    
 C4  0.841539979      0.305779994      0.128710002    
 C4  0.871290028      0.305779994      0.158460006    
 H2  0.826319993      0.293540001       6.49800003E-02
 H2  0.935020030      0.293540001      0.173679993    
 H3  0.809170008      0.315899998      0.136480004    
 H3  0.863520026      0.315899998      0.190830007    
 C1  0.573970020      0.253789991       7.39699975E-02
 N1  0.544080019      0.232099995       9.29199979E-02
 N1  0.592920005      0.232099995       4.40800004E-02
 C2  0.544149995      0.194529995       7.38999993E-02
 C2  0.573899984      0.194529995       4.41499986E-02
 H1  0.581830025      0.284960002       8.18300024E-02
 C3  0.580110013      0.160219997       2.06199996E-02
 C3  0.520619988      0.160219997       8.01099986E-02
 C4  0.556590021      0.125909999       2.68399995E-02
 C4  0.526839972      0.125909999       5.65899983E-02
 H2  0.604719996      0.160219997      0.996020019    
 H2  0.496019989      0.160219997      0.104719996    
 H3  0.561730027       9.75299999E-02   7.37999985E-03
 H3  0.507380009       9.75299999E-02   6.17300011E-02
 C1  0.426030010      0.246209994       7.39699975E-02
 N1  0.455920011      0.267899990       9.29199979E-02
 N1  0.407079995      0.267899990       4.40800004E-02
 C2  0.455850005      0.305469990       7.38999993E-02
 C2  0.426099986      0.305469990       4.41499986E-02
 H1  0.418170005      0.215039998       8.18300024E-02
 C3  0.419889987      0.339780003       2.06199996E-02
 C3  0.479380012      0.339780003       8.01099986E-02
 C4  0.443410009      0.374089986       2.68399995E-02
 C4  0.473159999      0.374089986       5.65899983E-02
 H2  0.395280004      0.339780003      0.996020019    
 H2  0.503979981      0.339780003      0.104719996    
 H3  0.438270003      0.402469993       7.37999985E-03
 H3  0.492619991      0.402469993       6.17300011E-02
 C1  0.934430003      0.745249987       6.55699968E-02
 N1  0.955919981      0.767899990       9.29199979E-02
 N1  0.907079995      0.767899990       4.40800004E-02
 C2  0.941299975      0.807139993       8.84499997E-02
 C2  0.911549985      0.807139993       5.86999990E-02
 H1  0.938639998      0.712689996       6.13600016E-02
 C3  0.892040014      0.842970014       4.84700017E-02
 C3  0.951529980      0.842970014      0.107960001    
 C4  0.902279973      0.878799975       6.79700002E-02
 C4  0.932030022      0.878799975       9.77199972E-02
 H2  0.867439985      0.842970014       2.38600001E-02
 H2  0.976140022      0.842970014      0.132560000    
 H3  0.886139989      0.908439994       5.95100001E-02
 H3  0.940490007      0.908439994      0.113860004    
 C1  0.422250003      0.748950005       7.77499974E-02
 N1  0.455920011      0.767899990       9.29199979E-02
 N1  0.407079995      0.767899990       4.40800004E-02
 C2  0.462410003      0.800719976       6.73400015E-02
 C2  0.432660013      0.800719976       3.75900008E-02
 H1  0.408950001      0.721719980       9.10499990E-02
 C3  0.432419986      0.830690026       8.08999967E-03
 C3  0.491910011      0.830690026       6.75799996E-02
 C4  0.461930007      0.860660017       8.32000002E-03
 C4  0.491679996      0.860660017       3.80700007E-02
 H2  0.407819986      0.830690026      0.983479977    
 H2  0.516520023      0.830690026       9.21799988E-02
 H3  0.461739987      0.885460019      0.983910024    
 H3  0.516089976      0.885460019       3.82600017E-02
 C1  0.251049995      0.577750027       7.77499974E-02
 N1  0.232099995      0.544080019       9.29199979E-02
 N1  0.232099995      0.592920005       4.40800004E-02
 C2  0.199279994      0.537590027       6.73400015E-02
 C2  0.199279994      0.567340016       3.75900008E-02
 H1  0.278279990      0.591050029       9.10499990E-02
 C3  0.169310004      0.567579985       8.08999967E-03
 C3  0.169310004      0.508090019       6.75799996E-02
 C4  0.139339998      0.538070023       8.32000002E-03
 C4  0.139339998      0.508319974       3.80700007E-02
 H2  0.169310004      0.592180014      0.983479977    
 H2  0.169310004      0.483480006       9.21799988E-02
 H3  0.114540003      0.538259983      0.983910024    
 H3  0.114540003      0.483909994       3.82600017E-02
 C1  0.247089997      0.938470006       6.15300015E-02
 N1  0.267899990      0.955919981       9.29199979E-02
 N1  0.267899990      0.907079995       4.40800004E-02
 C2  0.303950012      0.934289992       9.54599977E-02
 C2  0.303950012      0.904540002       6.57100007E-02
 H1  0.217179999      0.948499978       5.15000001E-02
 C3  0.336860001      0.878629982       6.18799999E-02
 C3  0.336860001      0.938120008      0.121370003    
 C4  0.369769990      0.882470012       8.77799988E-02
 C4  0.369769990      0.912220001      0.117530003    
 H2  0.336860001      0.854030013       3.72699983E-02
 H2  0.336860001      0.962729990      0.145970002    
 H3  0.397000015      0.861039996       8.46100003E-02
 H3  0.397000015      0.915390015      0.138960004    
 C1  0.750349998      0.442039996       5.79599999E-02
 N1  0.767899990      0.455920011       9.29199979E-02
 N1  0.767899990      0.407079995       4.40800004E-02
 C2  0.798290014      0.428099990      0.101650000    
 C2  0.798290014      0.398350000       7.19000027E-02
 H1  0.725139976      0.457199991       4.28000018E-02
 C3  0.826040030      0.366800010       7.37100020E-02
 C3  0.826040030      0.426290005      0.133200005    
 C4  0.853799999      0.364989996      0.105260000    
 C4  0.853799999      0.394739985      0.135010004    
 H2  0.826040030      0.342200011       4.91099991E-02
 H2  0.826040030      0.450890005      0.157800004    
 H3  0.876749992      0.338889986      0.106760003    
 H3  0.876749992      0.393240005      0.161109999    
 C1  0.760160029      0.946829975       5.31699993E-02
 N1  0.767899990      0.955919981       9.29199979E-02
 N1  0.767899990      0.907079995       4.40800004E-02
 C2  0.781300008      0.919799984      0.109949999    
 C2  0.781300008      0.890049994       8.02000016E-02
 H1  0.749040008      0.968879998       3.11200004E-02
 C3  0.793540001      0.850929976       8.95799994E-02
 C3  0.793540001      0.910420001      0.149069995    
 C4  0.805779994      0.841539979      0.128710002    
 C4  0.805779994      0.871290028      0.158460006    
 H2  0.793540001      0.826319993       6.49800003E-02
 H2  0.793540001      0.935020030      0.173679993    
 H3  0.815900028      0.809170008      0.136480004    
 H3  0.815900028      0.863520026      0.190830007    
 C1  0.250349998      0.442039996       5.79599999E-02
 N1  0.267899990      0.455920011       9.29199979E-02
 N1  0.267899990      0.407079995       4.40800004E-02
 C2  0.298290014      0.428099990      0.101650000    
 C2  0.298290014      0.398350000       7.19000027E-02
 H1  0.225140005      0.457199991       4.28000018E-02
 C3  0.326040000      0.366800010       7.37100020E-02
 C3  0.326040000      0.426290005      0.133200005    
 C4  0.353799999      0.364989996      0.105260000    
 C4  0.353799999      0.394739985      0.135010004    
 H2  0.326040000      0.342200011       4.91099991E-02
 H2  0.326040000      0.450890005      0.157800004    
 H3  0.376749992      0.338889986      0.106760003    
 H3  0.376749992      0.393240005      0.161109999    
 C1  0.749650002       5.79599999E-02   5.79599999E-02
 N1  0.732100010       4.40800004E-02   9.29199979E-02
 N1  0.732100010       9.29199979E-02   4.40800004E-02
 C2  0.701709986       7.19000027E-02  0.101650000    
 C2  0.701709986      0.101650000       7.19000027E-02
 H1  0.774860024       4.28000018E-02   4.28000018E-02
 C3  0.673959970      0.133200005       7.37100020E-02
 C3  0.673959970       7.37100020E-02  0.133200005    
 C4  0.646200001      0.135010004      0.105260000    
 C4  0.646200001      0.105260000      0.135010004    
 H2  0.673959970      0.157800004       4.91099991E-02
 H2  0.673959970       4.91099991E-02  0.157800004    
 H3  0.623250008      0.161109999      0.106760003    
 H3  0.623250008      0.106760003      0.161109999    
 C1  0.754750013      0.565569997       6.55699968E-02
 N1  0.732100010      0.544080019       9.29199979E-02
 N1  0.732100010      0.592920005       4.40800004E-02
 C2  0.692860007      0.558700025       8.84499997E-02
 C2  0.692860007      0.588450015       5.86999990E-02
 H1  0.787310004      0.561360002       6.13600016E-02
 C3  0.657029986      0.607959986       4.84700017E-02
 C3  0.657029986      0.548470020      0.107960001    
 C4  0.621200025      0.597720027       6.79700002E-02
 C4  0.621200025      0.567969978       9.77199972E-02
 H2  0.657029986      0.632560015       2.38600001E-02
 H2  0.657029986      0.523859978      0.132560000    
 H3  0.591560006      0.613860011       5.95100001E-02
 H3  0.591560006      0.559509993      0.113860004    
 C1  0.251049995       7.77499974E-02   7.77499974E-02
 N1  0.232099995       4.40800004E-02   9.29199979E-02
 N1  0.232099995       9.29199979E-02   4.40800004E-02
 C2  0.199279994       3.75900008E-02   6.73400015E-02
 C2  0.199279994       6.73400015E-02   3.75900008E-02
 H1  0.278279990       9.10499990E-02   9.10499990E-02
 C3  0.169310004       6.75799996E-02   8.08999967E-03
 C3  0.169310004       8.08999967E-03   6.75799996E-02
 C4  0.139339998       3.80700007E-02   8.32000002E-03
 C4  0.139339998       8.32000002E-03   3.80700007E-02
 H2  0.169310004       9.21799988E-02  0.983479977    
 H2  0.169310004      0.983479977       9.21799988E-02
 H3  0.114540003       3.82600017E-02  0.983910024    
 H3  0.114540003      0.983910024       3.82600017E-02
 C1  0.176029995      0.503790021      0.676029980    
 N1  0.157079995      0.482100010      0.705919981    
 N1  0.205919996      0.482100010      0.657079995    
 C2  0.176100001      0.444530010      0.705850005    
 C2  0.205850005      0.444530010      0.676100016    
 H1  0.168170005      0.534959972      0.668169975    
 C3  0.229379997      0.410219997      0.669889987    
 C3  0.169890001      0.410219997      0.729380012    
 C4  0.223159999      0.375910014      0.693409979    
 C4  0.193409994      0.375910014      0.723160028    
 H2  0.253980011      0.410219997      0.645280004    
 H2  0.145280004      0.410219997      0.753979981    
 H3  0.242620006      0.347530007      0.688269973    
 H3  0.188270003      0.347530007      0.742619991    
 C1  0.319810003      0.994949996      0.680190027    
 N1  0.342920005       1.78999994E-02  0.705919981    
 N1  0.294079989       1.78999994E-02  0.657079995    
 C2  0.331099987       5.76599985E-02  0.698650002    
 C2  0.301349998       5.76599985E-02  0.668900013    
 H1  0.321709991      0.961960018      0.678290009    
 C3  0.284399986       9.39700007E-02  0.656109989    
 C3  0.343890011       9.39700007E-02  0.715600014    
 C4  0.297190011      0.130270004      0.673060000    
 C4  0.326940000      0.130270004      0.702809989    
 H2  0.259790003       9.39700007E-02  0.631510019    
 H2  0.368490010       9.39700007E-02  0.740209997    
 H3  0.283160001      0.160310000      0.662479997    
 H3  0.337520003      0.160310000      0.716840029    
 C1  0.805100024      0.504809976      0.694899976    
 N1  0.842920005      0.517899990      0.705919981    
 N1  0.794080019      0.517899990      0.657079995    
 C2  0.856589973      0.540570021      0.673160017    
 C2  0.826839983      0.540570021      0.643410027    
 H1  0.785849988      0.486000001      0.714150012    
 C3  0.833159983      0.561269999      0.607349992    
 C3  0.892650008      0.561269999      0.666840017    
 C4  0.869220018      0.581969976      0.601029992    
 C4  0.898970008      0.581969976      0.630779982    
 H2  0.808560014      0.561269999      0.582750022    
 H2  0.917249978      0.561269999      0.691439986    
 H3  0.874450028      0.599089980      0.571200013    
 H3  0.928799987      0.599089980      0.625549972    
 C1  0.802269995       1.60399992E-02  0.697730005    
 N1  0.842920005       1.78999994E-02  0.705919981    
 N1  0.794080019       1.78999994E-02  0.657079995    
 C2  0.861490011       2.11200006E-02  0.668259978    
 C2  0.831740022       2.11200006E-02  0.638509989    
 H1  0.778940022       1.33600002E-02  0.721059978    
 C3  0.842549980       2.40599997E-02  0.597959995    
 C3  0.902040005       2.40599997E-02  0.657450020    
 C4  0.883090019       2.70000007E-02  0.587159991    
 C4  0.912840009       2.70000007E-02  0.616909981    
 H2  0.817939997       2.40599997E-02  0.573360026    
 H2  0.926639974       2.40599997E-02  0.682060003    
 H3  0.892019987       2.94300001E-02  0.553619981    
 H3  0.946380019       2.94300001E-02  0.607980013    
 C1  0.302269995      0.516040027      0.697730005    
 N1  0.342920005      0.517899990      0.705919981    
 N1  0.294079989      0.517899990      0.657079995    
 C2  0.361490011      0.521120012      0.668259978    
 C2  0.331739992      0.521120012      0.638509989    
 H1  0.278939992      0.513360023      0.721059978    
 C3  0.342550009      0.524060011      0.597959995    
 C3  0.402040005      0.524060011      0.657450020    
 C4  0.383089989      0.527000010      0.587159991    
 C4  0.412840009      0.527000010      0.616909981    
 H2  0.317939997      0.524060011      0.573360026    
 H2  0.426640004      0.524060011      0.682060003    
 H3  0.392019987      0.529429972      0.553619981    
 H3  0.446379989      0.529429972      0.607980013    
 C1  0.688470006      0.502910018      0.688470006    
 N1  0.657079995      0.482100010      0.705919981    
 N1  0.705919981      0.482100010      0.657079995    
 C2  0.654540002      0.446049988      0.684289992    
 C2  0.684289992      0.446049988      0.654540002    
 H1  0.698499978      0.532819986      0.698499978    
 C3  0.688120008      0.413139999      0.628629982    
 C3  0.628629982      0.413139999      0.688120008    
 C4  0.662220001      0.380230010      0.632470012    
 C4  0.632470012      0.380230010      0.662220001    
 H2  0.712729990      0.413139999      0.604030013    
 H2  0.604030013      0.413139999      0.712729990    
 H3  0.665390015      0.352999985      0.611039996    
 H3  0.611039996      0.352999985      0.665390015    
 C1  0.172250003       1.04999996E-03  0.672249973    
 N1  0.157079995      0.982100010      0.705919981    
 N1  0.205919996      0.982100010      0.657079995    
 C2  0.182659999      0.949280024      0.712409973    
 C2  0.212410003      0.949280024      0.682659984    
 H1  0.158950001       2.82799993E-02  0.658949971    
 C3  0.241909996      0.919309974      0.682420015    
 C3  0.182420000      0.919309974      0.741909981    
 C4  0.241679996      0.889339983      0.711929977    
 C4  0.211930007      0.889339983      0.741680026    
 H2  0.266519994      0.919309974      0.657819986    
 H2  0.157820001      0.919309974      0.766520023    
 H3  0.266090006      0.864539981      0.711740017    
 H3  0.211740002      0.864539981      0.766089976    
 C1  0.676029980       3.78999999E-03  0.676029980    
 N1  0.657079995      0.982100010      0.705919981    
 N1  0.705919981      0.982100010      0.657079995    
 C2  0.676100016      0.944530010      0.705850005    
 C2  0.705850005      0.944530010      0.676100016    
 H1  0.668169975       3.49600017E-02  0.668169975    
 C3  0.729380012      0.910220027      0.669889987    
 C3  0.669889987      0.910220027      0.729380012    
 C4  0.723160028      0.875909984      0.693409979    
 C4  0.693409979      0.875909984      0.723160028    
 H2  0.753979981      0.910220027      0.645280004    
 H2  0.645280004      0.910220027      0.753979981    
 H3  0.742619991      0.847530007      0.688269973    
 H3  0.688269973      0.847530007      0.742619991    
 C1   4.74999985E-03  0.184430003      0.684430003    
 N1  0.982100010      0.157079995      0.705919981    
 N1  0.982100010      0.205919996      0.657079995    
 C2  0.942860007      0.161550000      0.691299975    
 C2  0.942860007      0.191300005      0.661549985    
 H1   3.73100005E-02  0.188639998      0.688639998    
 C3  0.907029986      0.201529995      0.642040014    
 C3  0.907029986      0.142039999      0.701529980    
 C4  0.871200025      0.182030007      0.652279973    
 C4  0.871200025      0.152280003      0.682030022    
 H2  0.907029986      0.226140007      0.617439985    
 H2  0.907029986      0.117440000      0.726140022    
 H3  0.841560006      0.190490007      0.636139989    
 H3  0.841560006      0.136140004      0.690490007    
 C1  0.496210009      0.323969990      0.676029980    
 N1  0.517899990      0.342920005      0.705919981    
 N1  0.517899990      0.294079989      0.657079995    
 C2  0.555469990      0.323900014      0.705850005    
 C2  0.555469990      0.294149995      0.676100016    
 H1  0.465039998      0.331829995      0.668169975    
 C3  0.589779973      0.270619988      0.669889987    
 C3  0.589779973      0.330110013      0.729380012    
 C4  0.624090016      0.276840001      0.693409979    
 C4  0.624090016      0.306589991      0.723160028    
 H2  0.589779973      0.246020004      0.645280004    
 H2  0.589779973      0.354719996      0.753979981    
 H3  0.652469993      0.257380009      0.688269973    
 H3  0.652469993      0.311729997      0.742619991    
 C1  0.994949996      0.819809973      0.680190027    
 N1   1.78999994E-02  0.842920005      0.705919981    
 N1   1.78999994E-02  0.794080019      0.657079995    
 C2   5.76599985E-02  0.831099987      0.698650002    
 C2   5.76599985E-02  0.801349998      0.668900013    
 H1  0.961960018      0.821709991      0.678290009    
 C3   9.39700007E-02  0.784399986      0.656109989    
 C3   9.39700007E-02  0.843890011      0.715600014    
 C4  0.130270004      0.797190011      0.673060000    
 C4  0.130270004      0.826940000      0.702809989    
 H2   9.39700007E-02  0.759790003      0.631510019    
 H2   9.39700007E-02  0.868489981      0.740209997    
 H3  0.160310000      0.783159971      0.662479997    
 H3  0.160310000      0.837520003      0.716840029    
 C1  0.483960003      0.197730005      0.697730005    
 N1  0.482100010      0.157079995      0.705919981    
 N1  0.482100010      0.205919996      0.657079995    
 C2  0.478879988      0.138510004      0.668259978    
 C2  0.478879988      0.168259993      0.638509989    
 H1  0.486640006      0.221059993      0.721059978    
 C3  0.475939989      0.157450005      0.597959995    
 C3  0.475939989       9.79600027E-02  0.657450020    
 C4  0.472999990      0.116910003      0.587159991    
 C4  0.472999990       8.71599987E-02  0.616909981    
 H2  0.475939989      0.182060003      0.573360026    
 H2  0.475939989       7.33600035E-02  0.682060003    
 H3  0.470569998      0.107979998      0.553619981    
 H3  0.470569998       5.36199994E-02  0.607980013    
 C1  0.483960003      0.697730005      0.697730005    
 N1  0.482100010      0.657079995      0.705919981    
 N1  0.482100010      0.705919981      0.657079995    
 C2  0.478879988      0.638509989      0.668259978    
 C2  0.478879988      0.668259978      0.638509989    
 H1  0.486640006      0.721059978      0.721059978    
 C3  0.475939989      0.657450020      0.597959995    
 C3  0.475939989      0.597959995      0.657450020    
 C4  0.472999990      0.616909981      0.587159991    
 C4  0.472999990      0.587159991      0.616909981    
 H2  0.475939989      0.682060003      0.573360026    
 H2  0.475939989      0.573360026      0.682060003    
 H3  0.470569998      0.607980013      0.553619981    
 H3  0.470569998      0.553619981      0.607980013    
 C1  0.496210009      0.823970020      0.676029980    
 N1  0.517899990      0.842920005      0.705919981    
 N1  0.517899990      0.794080019      0.657079995    
 C2  0.555469990      0.823899984      0.705850005    
 C2  0.555469990      0.794149995      0.676100016    
 H1  0.465039998      0.831830025      0.668169975    
 C3  0.589779973      0.770619988      0.669889987    
 C3  0.589779973      0.830110013      0.729380012    
 C4  0.624090016      0.776839972      0.693409979    
 C4  0.624090016      0.806590021      0.723160028    
 H2  0.589779973      0.746020019      0.645280004    
 H2  0.589779973      0.854719996      0.753979981    
 H3  0.652469993      0.757380009      0.688269973    
 H3  0.652469993      0.811730027      0.742619991    
 C1   5.04999980E-03  0.680190027      0.680190027    
 N1  0.982100010      0.657079995      0.705919981    
 N1  0.982100010      0.705919981      0.657079995    
 C2  0.942340016      0.668900013      0.698650002    
 C2  0.942340016      0.698650002      0.668900013    
 H1   3.80400009E-02  0.678290009      0.678290009    
 C3  0.906029999      0.715600014      0.656109989    
 C3  0.906029999      0.656109989      0.715600014    
 C4  0.869729996      0.702809989      0.673060000    
 C4  0.869729996      0.673060000      0.702809989    
 H2  0.906029999      0.740209997      0.631510019    
 H2  0.906029999      0.631510019      0.740209997    
 H3  0.839690030      0.716840029      0.662479997    
 H3  0.839690030      0.662479997      0.716840029    
 C1  0.996209979      0.323969990      0.676029980    
 N1   1.78999994E-02  0.342920005      0.705919981    
 N1   1.78999994E-02  0.294079989      0.657079995    
 C2   5.54700010E-02  0.323900014      0.705850005    
 C2   5.54700010E-02  0.294149995      0.676100016    
 H1  0.965040028      0.331829995      0.668169975    
 C3   8.97800028E-02  0.270619988      0.669889987    
 C3   8.97800028E-02  0.330110013      0.729380012    
 C4  0.124090001      0.276840001      0.693409979    
 C4  0.124090001      0.306589991      0.723160028    
 H2   8.97800028E-02  0.246020004      0.645280004    
 H2   8.97800028E-02  0.354719996      0.753979981    
 H3  0.152469993      0.257380009      0.688269973    
 H3  0.152469993      0.311729997      0.742619991    
 C1  0.922249973      0.922249973      0.751049995    
 N1  0.955919981      0.907079995      0.732100010    
 N1  0.907079995      0.955919981      0.732100010    
 C2  0.962409973      0.932659984      0.699280024    
 C2  0.932659984      0.962409973      0.699280024    
 H1  0.908949971      0.908949971      0.778280020    
 C3  0.932420015      0.991909981      0.669309974    
 C3  0.991909981      0.932420015      0.669309974    
 C4  0.961929977      0.991680026      0.639339983    
 C4  0.991680026      0.961929977      0.639339983    
 H2  0.907819986       1.65199991E-02  0.669309974    
 H2   1.65199991E-02  0.907819986      0.669309974    
 H3  0.961740017       1.60900000E-02  0.614539981    
 H3   1.60900000E-02  0.961740017      0.614539981    
 C1  0.922249973      0.422250003      0.751049995    
 N1  0.955919981      0.407079995      0.732100010    
 N1  0.907079995      0.455920011      0.732100010    
 C2  0.962409973      0.432660013      0.699280024    
 C2  0.932659984      0.462410003      0.699280024    
 H1  0.908949971      0.408950001      0.778280020    
 C3  0.932420015      0.491910011      0.669309974    
 C3  0.991909981      0.432419986      0.669309974    
 C4  0.961929977      0.491679996      0.639339983    
 C4  0.991680026      0.461930007      0.639339983    
 H2  0.907819986      0.516520023      0.669309974    
 H2   1.65199991E-02  0.407819986      0.669309974    
 H3  0.961740017      0.516089976      0.614539981    
 H3   1.60900000E-02  0.461739987      0.614539981    
 C1  0.422250003      0.922249973      0.751049995    
 N1  0.455920011      0.907079995      0.732100010    
 N1  0.407079995      0.955919981      0.732100010    
 C2  0.462410003      0.932659984      0.699280024    
 C2  0.432660013      0.962409973      0.699280024    
 H1  0.408950001      0.908949971      0.778280020    
 C3  0.432419986      0.991909981      0.669309974    
 C3  0.491910011      0.932420015      0.669309974    
 C4  0.461930007      0.991680026      0.639339983    
 C4  0.491679996      0.961929977      0.639339983    
 H2  0.407819986       1.65199991E-02  0.669309974    
 H2  0.516520023      0.907819986      0.669309974    
 H3  0.461739987       1.60900000E-02  0.614539981    
 H3  0.516089976      0.961740017      0.614539981    
 C1  0.447730005      0.447730005      0.733959973    
 N1  0.407079995      0.455920011      0.732100010    
 N1  0.455920011      0.407079995      0.732100010    
 C2  0.388509989      0.418260008      0.728879988    
 C2  0.418260008      0.388509989      0.728879988    
 H1  0.471060008      0.471060008      0.736639977    
 C3  0.407449991      0.347959995      0.725939989    
 C3  0.347959995      0.407449991      0.725939989    
 C4  0.366910011      0.337159991      0.722999990    
 C4  0.337159991      0.366910011      0.722999990    
 H2  0.432060003      0.323359996      0.725939989    
 H2  0.323359996      0.432060003      0.725939989    
 H3  0.357980013      0.303620011      0.720570028    
 H3  0.303620011      0.357980013      0.720570028    
 C1   5.22699989E-02   5.22699989E-02  0.733959973    
 N1   9.29199979E-02   4.40800004E-02  0.732100010    
 N1   4.40800004E-02   9.29199979E-02  0.732100010    
 C2  0.111489996       8.17399994E-02  0.728879988    
 C2   8.17399994E-02  0.111489996      0.728879988    
 H1   2.89399996E-02   2.89399996E-02  0.736639977    
 C3   9.25500020E-02  0.152040005      0.725939989    
 C3  0.152040005       9.25500020E-02  0.725939989    
 C4  0.133090004      0.162839994      0.722999990    
 C4  0.162839994      0.133090004      0.722999990    
 H2   6.79399967E-02  0.176640004      0.725939989    
 H2  0.176640004       6.79399967E-02  0.725939989    
 H3  0.142020002      0.196380004      0.720570028    
 H3  0.196380004      0.142020002      0.720570028    
 C1  0.552269995       5.22699989E-02  0.733959973    
 N1  0.544080019       9.29199979E-02  0.732100010    
 N1  0.592920005       4.40800004E-02  0.732100010    
 C2  0.581740022      0.111489996      0.728879988    
 C2  0.611490011       8.17399994E-02  0.728879988    
 H1  0.528940022       2.89399996E-02  0.736639977    
 C3  0.652040005       9.25500020E-02  0.725939989    
 C3  0.592549980      0.152040005      0.725939989    
 C4  0.662840009      0.133090004      0.722999990    
 C4  0.633090019      0.162839994      0.722999990    
 H2  0.676639974       6.79399967E-02  0.725939989    
 H2  0.567939997      0.176640004      0.725939989    
 H3  0.696380019      0.142020002      0.720570028    
 H3  0.642019987      0.196380004      0.720570028    
 C1  0.552269995      0.552269995      0.733959973    
 N1  0.592920005      0.544080019      0.732100010    
 N1  0.544080019      0.592920005      0.732100010    
 C2  0.611490011      0.581740022      0.728879988    
 C2  0.581740022      0.611490011      0.728879988    
 H1  0.528940022      0.528940022      0.736639977    
 C3  0.592549980      0.652040005      0.725939989    
 C3  0.652040005      0.592549980      0.725939989    
 C4  0.633090019      0.662840009      0.722999990    
 C4  0.662840009      0.633090019      0.722999990    
 H2  0.567939997      0.676639974      0.725939989    
 H2  0.676639974      0.567939997      0.725939989    
 H3  0.642019987      0.696380019      0.720570028    
 H3  0.696380019      0.642019987      0.720570028    
 C1   6.55699968E-02  0.565569997      0.754750013    
 N1   4.40800004E-02  0.592920005      0.732100010    
 N1   9.29199979E-02  0.544080019      0.732100010    
 C2   5.86999990E-02  0.588450015      0.692860007    
 C2   8.84499997E-02  0.558700025      0.692860007    
 H1   6.13600016E-02  0.561360002      0.787310004    
 C3  0.107960001      0.548470020      0.657029986    
 C3   4.84700017E-02  0.607959986      0.657029986    
 C4   9.77199972E-02  0.567969978      0.621200025    
 C4   6.79700002E-02  0.597720027      0.621200025    
 H2  0.132560000      0.523859978      0.657029986    
 H2   2.38600001E-02  0.632560015      0.657029986    
 H3  0.113860004      0.559509993      0.591560006    
 H3   5.95100001E-02  0.613860011      0.591560006    
 C1  0.426030010      0.573970020      0.746209979    
 N1  0.407079995      0.544080019      0.767899990    
 N1  0.455920011      0.592920005      0.767899990    
 C2  0.426099986      0.544149995      0.805469990    
 C2  0.455850005      0.573899984      0.805469990    
 H1  0.418170005      0.581830025      0.715040028    
 C3  0.479380012      0.580110013      0.839779973    
 C3  0.419889987      0.520619988      0.839779973    
 C4  0.473159999      0.556590021      0.874090016    
 C4  0.443410009      0.526839972      0.874090016    
 H2  0.503979981      0.604719996      0.839779973    
 H2  0.395280004      0.496019989      0.839779973    
 H3  0.492619991      0.561730027      0.902469993    
 H3  0.438270003      0.507380009      0.902469993    
 C1  0.930190027       6.98100030E-02  0.744949996    
 N1  0.907079995       4.40800004E-02  0.767899990    
 N1  0.955919981       9.29199979E-02  0.767899990    
 C2  0.918900013       5.13500012E-02  0.807659984    
 C2  0.948650002       8.11000019E-02  0.807659984    
 H1  0.928290009       7.17099980E-02  0.711960018    
 C3  0.965600014       9.38899964E-02  0.843970001    
 C3  0.906109989       3.44000012E-02  0.843970001    
 C4  0.952809989       7.69400001E-02  0.880270004    
 C4  0.923060000       4.71899994E-02  0.880270004    
 H2  0.990209997      0.118490003      0.843970001    
 H2  0.881510019       9.78999957E-03  0.843970001    
 H3  0.966840029       8.75200033E-02  0.910309970    
 H3  0.912479997       3.31600010E-02  0.910309970    
 C1  0.569809973      0.930190027      0.744949996    
 N1  0.544080019      0.907079995      0.767899990    
 N1  0.592920005      0.955919981      0.767899990    
 C2  0.551349998      0.918900013      0.807659984    
 C2  0.581099987      0.948650002      0.807659984    
 H1  0.571709991      0.928290009      0.711960018    
 C3  0.593890011      0.965600014      0.843970001    
 C3  0.534399986      0.906109989      0.843970001    
 C4  0.576940000      0.952809989      0.880270004    
 C4  0.547190011      0.923060000      0.880270004    
 H2  0.618489981      0.990209997      0.843970001    
 H2  0.509790003      0.881510019      0.843970001    
 H3  0.587520003      0.966840029      0.910309970    
 H3  0.533159971      0.912479997      0.910309970    
 C1  0.942040026      0.557959974      0.750349998    
 N1  0.907079995      0.544080019      0.767899990    
 N1  0.955919981      0.592920005      0.767899990    
 C2  0.898350000      0.571900010      0.798290014    
 C2  0.928099990      0.601650000      0.798290014    
 H1  0.957199991      0.542800009      0.725139976    
 C3  0.926289976      0.633199990      0.826040030    
 C3  0.866800010      0.573710024      0.826040030    
 C4  0.894739985      0.635010004      0.853799999    
 C4  0.864989996      0.605260015      0.853799999    
 H2  0.950890005      0.657800019      0.826040030    
 H2  0.842199981      0.549109995      0.826040030    
 H3  0.893239975      0.661109984      0.876749992    
 H3  0.838890016      0.606760025      0.876749992    
 C1   7.39699975E-02  0.926029980      0.746209979    
 N1   9.29199979E-02  0.955919981      0.767899990    
 N1   4.40800004E-02  0.907079995      0.767899990    
 C2   7.38999993E-02  0.955850005      0.805469990    
 C2   4.41499986E-02  0.926100016      0.805469990    
 H1   8.18300024E-02  0.918169975      0.715040028    
 C3   2.06199996E-02  0.919889987      0.839779973    
 C3   8.01099986E-02  0.979380012      0.839779973    
 C4   2.68399995E-02  0.943409979      0.874090016    
 C4   5.65899983E-02  0.973160028      0.874090016    
 H2  0.996020019      0.895280004      0.839779973    
 H2  0.104719996       3.98000004E-03  0.839779973    
 H3   7.37999985E-03  0.938269973      0.902469993    
 H3   6.17300011E-02  0.992619991      0.902469993    
 C1   7.77499974E-02  0.422250003      0.748950005    
 N1   4.40800004E-02  0.407079995      0.767899990    
 N1   9.29199979E-02  0.455920011      0.767899990    
 C2   3.75900008E-02  0.432660013      0.800719976    
 C2   6.73400015E-02  0.462410003      0.800719976    
 H1   9.10499990E-02  0.408950001      0.721719980    
 C3   6.75799996E-02  0.491910011      0.830690026    
 C3   8.08999967E-03  0.432419986      0.830690026    
 C4   3.80700007E-02  0.491679996      0.860660017    
 C4   8.32000002E-03  0.461930007      0.860660017    
 H2   9.21799988E-02  0.516520023      0.830690026    
 H2  0.983479977      0.407819986      0.830690026    
 H3   3.82600017E-02  0.516089976      0.885460019    
 H3  0.983910024      0.461739987      0.885460019    
 C1  0.430189997       6.98100030E-02  0.744949996    
 N1  0.455920011       9.29199979E-02  0.767899990    
 N1  0.407079995       4.40800004E-02  0.767899990    
 C2  0.448650002       8.11000019E-02  0.807659984    
 C2  0.418900013       5.13500012E-02  0.807659984    
 H1  0.428290009       7.17099980E-02  0.711960018    
 C3  0.406109989       3.44000012E-02  0.843970001    
 C3  0.465600014       9.38899964E-02  0.843970001    
 C4  0.423060000       4.71899994E-02  0.880270004    
 C4  0.452809989       7.69400001E-02  0.880270004    
 H2  0.381509990       9.78999957E-03  0.843970001    
 H2  0.490209997      0.118490003      0.843970001    
 H3  0.412479997       3.31600010E-02  0.910309970    
 H3  0.466839999       8.75200033E-02  0.910309970    
 C1  0.555100024      0.444900006      0.754809976    
 N1  0.592920005      0.455920011      0.767899990    
 N1  0.544080019      0.407079995      0.767899990    
 C2  0.606589973      0.423159987      0.790570021    
 C2  0.576839983      0.393409997      0.790570021    
 H1  0.535849988      0.464150012      0.736000001    
 C3  0.583159983      0.357349992      0.811269999    
 C3  0.642650008      0.416839987      0.811269999    
 C4  0.619220018      0.351029992      0.831969976    
 C4  0.648970008      0.380780011      0.831969976    
 H2  0.558560014      0.332749993      0.811269999    
 H2  0.667249978      0.441439986      0.811269999    
 H3  0.624450028      0.321200013      0.849089980    
 H3  0.678799987      0.375550002      0.849089980    
 C1  0.995249987      0.184430003      0.815569997    
 N1   1.78999994E-02  0.205919996      0.842920005    
 N1   1.78999994E-02  0.157079995      0.794080019    
 C2   5.71400002E-02  0.191300005      0.838450015    
 C2   5.71400002E-02  0.161550000      0.808700025    
 H1  0.962689996      0.188639998      0.811360002    
 C3   9.29699987E-02  0.142039999      0.798470020    
 C3   9.29699987E-02  0.201529995      0.857959986    
 C4  0.128800005      0.152280003      0.817969978    
 C4  0.128800005      0.182030007      0.847720027    
 H2   9.29699987E-02  0.117440000      0.773859978    
 H2   9.29699987E-02  0.226140007      0.882560015    
 H3  0.158439994      0.136140004      0.809509993    
 H3  0.158439994      0.190490007      0.863860011    
 C1  0.495249987      0.684430003      0.815569997    
 N1  0.517899990      0.705919981      0.842920005    
 N1  0.517899990      0.657079995      0.794080019    
 C2  0.557139993      0.691299975      0.838450015    
 C2  0.557139993      0.661549985      0.808700025    
 H1  0.462689996      0.688639998      0.811360002    
 C3  0.592970014      0.642040014      0.798470020    
 C3  0.592970014      0.701529980      0.857959986    
 C4  0.628799975      0.652279973      0.817969978    
 C4  0.628799975      0.682030022      0.847720027    
 H2  0.592970014      0.617439985      0.773859978    
 H2  0.592970014      0.726140022      0.882560015    
 H3  0.658439994      0.636139989      0.809509993    
 H3  0.658439994      0.690490007      0.863860011    
 C1  0.495189995      0.805100024      0.805100024    
 N1  0.482100010      0.794080019      0.842920005    
 N1  0.482100010      0.842920005      0.794080019    
 C2  0.459430009      0.826839983      0.856589973    
 C2  0.459430009      0.856589973      0.826839983    
 H1  0.513999999      0.785849988      0.785849988    
 C3  0.438730001      0.892650008      0.833159983    
 C3  0.438730001      0.833159983      0.892650008    
 C4  0.418029994      0.898970008      0.869220018    
 C4  0.418029994      0.869220018      0.898970008    
 H2  0.438730001      0.917249978      0.808560014    
 H2  0.438730001      0.808560014      0.917249978    
 H3  0.400909990      0.928799987      0.874450028    
 H3  0.400909990      0.874450028      0.928799987    
 C1  0.500349998      0.192039996      0.807959974    
 N1  0.517899990      0.205919996      0.842920005    
 N1  0.517899990      0.157079995      0.794080019    
 C2  0.548290014      0.178100005      0.851650000    
 C2  0.548290014      0.148350000      0.821900010    
 H1  0.475140005      0.207200006      0.792800009    
 C3  0.576040030      0.116800003      0.823710024    
 C3  0.576040030      0.176290005      0.883199990    
 C4  0.603799999      0.114990003      0.855260015    
 C4  0.603799999      0.144740000      0.885010004    
 H2  0.576040030       9.22000036E-02  0.799109995    
 H2  0.576040030      0.200890005      0.907800019    
 H3  0.626749992       8.88900012E-02  0.856760025    
 H3  0.626749992      0.143240005      0.911109984    
 C1  0.997089982      0.688470006      0.811529994    
 N1   1.78999994E-02  0.705919981      0.842920005    
 N1   1.78999994E-02  0.657079995      0.794080019    
 C2   5.39500006E-02  0.684289992      0.845459998    
 C2   5.39500006E-02  0.654540002      0.815710008    
 H1  0.967180014      0.698499978      0.801500022    
 C3   8.68600011E-02  0.628629982      0.811879992    
 C3   8.68600011E-02  0.688120008      0.871370018    
 C4  0.119769998      0.632470012      0.837779999    
 C4  0.119769998      0.662220001      0.867529988    
 H2   8.68600011E-02  0.604030013      0.787270010    
 H2   8.68600011E-02  0.712729990      0.895969987    
 H3  0.147000000      0.611039996      0.834609985    
 H3  0.147000000      0.665390015      0.888960004    
 C1   1.04999996E-03  0.827750027      0.827750027    
 N1  0.982100010      0.794080019      0.842920005    
 N1  0.982100010      0.842920005      0.794080019    
 C2  0.949280024      0.787590027      0.817340016    
 C2  0.949280024      0.817340016      0.787590027    
 H1   2.82799993E-02  0.841050029      0.841050029    
 C3  0.919309974      0.817579985      0.758090019    
 C3  0.919309974      0.758090019      0.817579985    
 C4  0.889339983      0.788070023      0.758319974    
 C4  0.889339983      0.758319974      0.788070023    
 H2  0.919309974      0.842180014      0.733479977    
 H2  0.919309974      0.733479977      0.842180014    
 H3  0.864539981      0.788259983      0.733910024    
 H3  0.864539981      0.733910024      0.788259983    
 C1   5.04999980E-03  0.319810003      0.819809973    
 N1  0.982100010      0.294079989      0.842920005    
 N1  0.982100010      0.342920005      0.794080019    
 C2  0.942340016      0.301349998      0.831099987    
 C2  0.942340016      0.331099987      0.801349998    
 H1   3.80400009E-02  0.321709991      0.821709991    
 C3  0.906029999      0.343890011      0.784399986    
 C3  0.906029999      0.284399986      0.843890011    
 C4  0.869729996      0.326940000      0.797190011    
 C4  0.869729996      0.297190011      0.826940000    
 H2  0.906029999      0.368490010      0.759790003    
 H2  0.906029999      0.259790003      0.868489981    
 H3  0.839690030      0.337520003      0.783159971    
 H3  0.839690030      0.283160001      0.837520003    
 C1  0.483960003      0.302269995      0.802269995    
 N1  0.482100010      0.294079989      0.842920005    
 N1  0.482100010      0.342920005      0.794080019    
 C2  0.478879988      0.331739992      0.861490011    
 C2  0.478879988      0.361490011      0.831740022    
 H1  0.486640006      0.278939992      0.778940022    
 C3  0.475939989      0.402040005      0.842549980    
 C3  0.475939989      0.342550009      0.902040005    
 C4  0.472999990      0.412840009      0.883090019    
 C4  0.472999990      0.383089989      0.912840009    
 H2  0.475939989      0.426640004      0.817939997    
 H2  0.475939989      0.317939997      0.926639974    
 H3  0.470569998      0.446379989      0.892019987    
 H3  0.470569998      0.392019987      0.946380019    
 C1  0.194900006       4.80999984E-03  0.805100024    
 N1  0.205919996       1.78999994E-02  0.842920005    
 N1  0.157079995       1.78999994E-02  0.794080019    
 C2  0.173160002       4.05699983E-02  0.856589973    
 C2  0.143409997       4.05699983E-02  0.826839983    
 H1  0.214149997      0.986000001      0.785849988    
 C3  0.107349999       6.12699986E-02  0.833159983    
 C3  0.166840002       6.12699986E-02  0.892650008    
 C4  0.101030000       8.19699988E-02  0.869220018    
 C4  0.130779997       8.19699988E-02  0.898970008    
 H2   8.27500001E-02   6.12699986E-02  0.808560014    
 H2  0.191440001       6.12699986E-02  0.917249978    
 H3   7.11999983E-02   9.90900025E-02  0.874450028    
 H3  0.125550002       9.90900025E-02  0.928799987    
 C1  0.323969990       3.78999999E-03  0.823970020    
 N1  0.294079989      0.982100010      0.842920005    
 N1  0.342920005      0.982100010      0.794080019    
 C2  0.294149995      0.944530010      0.823899984    
 C2  0.323900014      0.944530010      0.794149995    
 H1  0.331829995       3.49600017E-02  0.831830025    
 C3  0.330110013      0.910220027      0.770619988    
 C3  0.270619988      0.910220027      0.830110013    
 C4  0.306589991      0.875909984      0.776839972    
 C4  0.276840001      0.875909984      0.806590021    
 H2  0.354719996      0.910220027      0.746020019    
 H2  0.246020004      0.910220027      0.854719996    
 H3  0.311729997      0.847530007      0.757380009    
 H3  0.257380009      0.847530007      0.811730027    
 C1  0.697730005      0.516040027      0.802269995    
 N1  0.705919981      0.517899990      0.842920005    
 N1  0.657079995      0.517899990      0.794080019    
 C2  0.668259978      0.521120012      0.861490011    
 C2  0.638509989      0.521120012      0.831740022    
 H1  0.721059978      0.513360023      0.778940022    
 C3  0.597959995      0.524060011      0.842549980    
 C3  0.657450020      0.524060011      0.902040005    
 C4  0.587159991      0.527000010      0.883090019    
 C4  0.616909981      0.527000010      0.912840009    
 H2  0.573360026      0.524060011      0.817939997    
 H2  0.682060003      0.524060011      0.926639974    
 H3  0.553619981      0.529429972      0.892019987    
 H3  0.607980013      0.529429972      0.946380019    
 C1  0.823970020       3.78999999E-03  0.823970020    
 N1  0.794080019      0.982100010      0.842920005    
 N1  0.842920005      0.982100010      0.794080019    
 C2  0.794149995      0.944530010      0.823899984    
 C2  0.823899984      0.944530010      0.794149995    
 H1  0.831830025       3.49600017E-02  0.831830025    
 C3  0.830110013      0.910220027      0.770619988    
 C3  0.770619988      0.910220027      0.830110013    
 C4  0.806590021      0.875909984      0.776839972    
 C4  0.776839972      0.875909984      0.806590021    
 H2  0.854719996      0.910220027      0.746020019    
 H2  0.746020019      0.910220027      0.854719996    
 H3  0.811730027      0.847530007      0.757380009    
 H3  0.757380009      0.847530007      0.811730027    
 C1  0.696829975       1.01600001E-02  0.803170025    
 N1  0.705919981       1.78999994E-02  0.842920005    
 N1  0.657079995       1.78999994E-02  0.794080019    
 C2  0.669799984       3.13000008E-02  0.859950006    
 C2  0.640049994       3.13000008E-02  0.830200016    
 H1  0.718879998      0.999040008      0.781120002    
 C3  0.600929976       4.35400009E-02  0.839579999    
 C3  0.660420001       4.35400009E-02  0.899070024    
 C4  0.591539979       5.57800010E-02  0.878709972    
 C4  0.621290028       5.57800010E-02  0.908460021    
 H2  0.576319993       4.35400009E-02  0.814979970    
 H2  0.685020030       4.35400009E-02  0.923680007    
 H3  0.559170008       6.58999979E-02  0.886479974    
 H3  0.613520026       6.58999979E-02  0.940829992    
 C1  0.315569997      0.504750013      0.815569997    
 N1  0.294079989      0.482100010      0.842920005    
 N1  0.342920005      0.482100010      0.794080019    
 C2  0.308699995      0.442860007      0.838450015    
 C2  0.338450015      0.442860007      0.808700025    
 H1  0.311360002      0.537310004      0.811360002    
 C3  0.357959986      0.407029986      0.798470020    
 C3  0.298469990      0.407029986      0.857959986    
 C4  0.347719997      0.371199995      0.817969978    
 C4  0.317970008      0.371199995      0.847720027    
 H2  0.382560015      0.407029986      0.773859978    
 H2  0.273860008      0.407029986      0.882560015    
 H3  0.363860011      0.341560006      0.809509993    
 H3  0.309509993      0.341560006      0.863860011    
 C1  0.805100024      0.495189995      0.805100024    
 N1  0.794080019      0.482100010      0.842920005    
 N1  0.842920005      0.482100010      0.794080019    
 C2  0.826839983      0.459430009      0.856589973    
 C2  0.856589973      0.459430009      0.826839983    
 H1  0.785849988      0.513999999      0.785849988    
 C3  0.892650008      0.438730001      0.833159983    
 C3  0.833159983      0.438730001      0.892650008    
 C4  0.898970008      0.418029994      0.869220018    
 C4  0.869220018      0.418029994      0.898970008    
 H2  0.917249978      0.438730001      0.808560014    
 H2  0.808560014      0.438730001      0.917249978    
 H3  0.928799987      0.400909990      0.874450028    
 H3  0.874450028      0.400909990      0.928799987    
 C1  0.172250003      0.498950005      0.827750027    
 N1  0.205919996      0.517899990      0.842920005    
 N1  0.157079995      0.517899990      0.794080019    
 C2  0.212410003      0.550719976      0.817340016    
 C2  0.182659999      0.550719976      0.787590027    
 H1  0.158950001      0.471720010      0.841050029    
 C3  0.182420000      0.580690026      0.758090019    
 C3  0.241909996      0.580690026      0.817579985    
 C4  0.211930007      0.610660017      0.758319974    
 C4  0.241679996      0.610660017      0.788070023    
 H2  0.157820001      0.580690026      0.733479977    
 H2  0.266519994      0.580690026      0.842180014    
 H3  0.211740002      0.635460019      0.733910024    
 H3  0.266090006      0.635460019      0.788259983    
 C1  0.245189995      0.944899976      0.944899976    
 N1  0.232099995      0.955919981      0.907079995    
 N1  0.232099995      0.907079995      0.955919981    
 C2  0.209429994      0.923160017      0.893410027    
 C2  0.209429994      0.893410027      0.923160017    
 H1  0.263999999      0.964150012      0.964150012    
 C3  0.188730001      0.857349992      0.916840017    
 C3  0.188730001      0.916840017      0.857349992    
 C4  0.168029994      0.851029992      0.880779982    
 C4  0.168029994      0.880779982      0.851029992    
 H2  0.188730001      0.832750022      0.941439986    
 H2  0.188730001      0.941439986      0.832750022    
 H3  0.150910005      0.821200013      0.875549972    
 H3  0.150910005      0.875549972      0.821200013    
 C1  0.247089997      0.561529994      0.938470006    
 N1  0.267899990      0.544080019      0.907079995    
 N1  0.267899990      0.592920005      0.955919981    
 C2  0.303950012      0.565710008      0.904540002    
 C2  0.303950012      0.595459998      0.934289992    
 H1  0.217179999      0.551500022      0.948499978    
 C3  0.336860001      0.621370018      0.938120008    
 C3  0.336860001      0.561879992      0.878629982    
 C4  0.369769990      0.617529988      0.912220001    
 C4  0.369769990      0.587779999      0.882470012    
 H2  0.336860001      0.645969987      0.962729990    
 H2  0.336860001      0.537270010      0.854030013    
 H3  0.397000015      0.638960004      0.915390015    
 H3  0.397000015      0.584609985      0.861039996    
 C1  0.239840001      0.446830004      0.946829975    
 N1  0.232099995      0.455920011      0.907079995    
 N1  0.232099995      0.407079995      0.955919981    
 C2  0.218700007      0.419800013      0.890049994    
 C2  0.218700007      0.390049994      0.919799984    
 H1  0.250959992      0.468879998      0.968879998    
 C3  0.206459999      0.350930005      0.910420001    
 C3  0.206459999      0.410420001      0.850929976    
 C4  0.194220006      0.341540009      0.871290028    
 C4  0.194220006      0.371289998      0.841539979    
 H2  0.206459999      0.326319993      0.935020030    
 H2  0.206459999      0.435020000      0.826319993    
 H3  0.184100002      0.309170008      0.863520026    
 H3  0.184100002      0.363519996      0.809170008    
 C1  0.760160029      0.553170025      0.946829975    
 N1  0.767899990      0.544080019      0.907079995    
 N1  0.767899990      0.592920005      0.955919981    
 C2  0.781300008      0.580200016      0.890049994    
 C2  0.781300008      0.609950006      0.919799984    
 H1  0.749040008      0.531120002      0.968879998    
 C3  0.793540001      0.649070024      0.910420001    
 C3  0.793540001      0.589579999      0.850929976    
 C4  0.805779994      0.658460021      0.871290028    
 C4  0.805779994      0.628709972      0.841539979    
 H2  0.793540001      0.673680007      0.935020030    
 H2  0.793540001      0.564979970      0.826319993    
 H3  0.815900028      0.690829992      0.863520026    
 H3  0.815900028      0.636479974      0.809170008    
 C1  0.752910018      0.938470006      0.938470006    
 N1  0.732100010      0.955919981      0.907079995    
 N1  0.732100010      0.907079995      0.955919981    
 C2  0.696049988      0.934289992      0.904540002    
 C2  0.696049988      0.904540002      0.934289992    
 H1  0.782819986      0.948499978      0.948499978    
 C3  0.663139999      0.878629982      0.938120008    
 C3  0.663139999      0.938120008      0.878629982    
 C4  0.630230010      0.882470012      0.912220001    
 C4  0.630230010      0.912220001      0.882470012    
 H2  0.663139999      0.854030013      0.962729990    
 H2  0.663139999      0.962729990      0.854030013    
 H3  0.602999985      0.861039996      0.915390015    
 H3  0.602999985      0.915390015      0.861039996    
 C1  0.733959973      0.447730005      0.947730005    
 N1  0.732100010      0.455920011      0.907079995    
 N1  0.732100010      0.407079995      0.955919981    
 C2  0.728879988      0.418260008      0.888509989    
 C2  0.728879988      0.388509989      0.918259978    
 H1  0.736639977      0.471060008      0.971059978    
 C3  0.725939989      0.347959995      0.907450020    
 C3  0.725939989      0.407449991      0.847959995    
 C4  0.722999990      0.337159991      0.866909981    
 C4  0.722999990      0.366910011      0.837159991    
 H2  0.725939989      0.323359996      0.932060003    
 H2  0.725939989      0.432060003      0.823360026    
 H3  0.720570028      0.303620011      0.857980013    
 H3  0.720570028      0.357980013      0.803619981    
 C1  0.760160029       5.31699993E-02  0.946829975    
 N1  0.767899990       4.40800004E-02  0.907079995    
 N1  0.767899990       9.29199979E-02  0.955919981    
 C2  0.781300008       8.02000016E-02  0.890049994    
 C2  0.781300008      0.109949999      0.919799984    
 H1  0.749040008       3.11200004E-02  0.968879998    
 C3  0.793540001      0.149069995      0.910420001    
 C3  0.793540001       8.95799994E-02  0.850929976    
 C4  0.805779994      0.158460006      0.871290028    
 C4  0.805779994      0.128710002      0.841539979    
 H2  0.793540001      0.173679993      0.935020030    
 H2  0.793540001       6.49800003E-02  0.826319993    
 H3  0.815900028      0.190830007      0.863520026    
 H3  0.815900028      0.136480004      0.809170008    
 C1  0.266039997       5.22699989E-02  0.947730005    
 N1  0.267899990       4.40800004E-02  0.907079995    
 N1  0.267899990       9.29199979E-02  0.955919981    
 C2  0.271120012       8.17399994E-02  0.888509989    
 C2  0.271120012      0.111489996      0.918259978    
 H1  0.263359994       2.89399996E-02  0.971059978    
 C3  0.274060011      0.152040005      0.907450020    
 C3  0.274060011       9.25500020E-02  0.847959995    
 C4  0.277000010      0.162839994      0.866909981    
 C4  0.277000010      0.133090004      0.837159991    
 H2  0.274060011      0.176640004      0.932060003    
 H2  0.274060011       6.79399967E-02  0.823360026    
 H3  0.279430002      0.196380004      0.857980013    
 H3  0.279430002      0.142020002      0.803619981    
 C1  0.934430003      0.754750013      0.934430003    
 N1  0.955919981      0.732100010      0.907079995    
 N1  0.907079995      0.732100010      0.955919981    
 C2  0.941299975      0.692860007      0.911549985    
 C2  0.911549985      0.692860007      0.941299975    
 H1  0.938639998      0.787310004      0.938639998    
 C3  0.892040014      0.657029986      0.951529980    
 C3  0.951529980      0.657029986      0.892040014    
 C4  0.902279973      0.621200025      0.932030022    
 C4  0.932030022      0.621200025      0.902279973    
 H2  0.867439985      0.657029986      0.976140022    
 H2  0.976140022      0.657029986      0.867439985    
 H3  0.886139989      0.591560006      0.940490007    
 H3  0.940490007      0.591560006      0.886139989    
 C1  0.447730005      0.733959973      0.947730005    
 N1  0.455920011      0.732100010      0.907079995    
 N1  0.407079995      0.732100010      0.955919981    
 C2  0.418260008      0.728879988      0.888509989    
 C2  0.388509989      0.728879988      0.918259978    
 H1  0.471060008      0.736639977      0.971059978    
 C3  0.347959995      0.725939989      0.907450020    
 C3  0.407449991      0.725939989      0.847959995    
 C4  0.337159991      0.722999990      0.866909981    
 C4  0.366910011      0.722999990      0.837159991    
 H2  0.323359996      0.725939989      0.932060003    
 H2  0.432060003      0.725939989      0.823360026    
 H3  0.303620011      0.720570028      0.857980013    
 H3  0.357980013      0.720570028      0.803619981    
 C1  0.553170025      0.760160029      0.946829975    
 N1  0.544080019      0.767899990      0.907079995    
 N1  0.592920005      0.767899990      0.955919981    
 C2  0.580200016      0.781300008      0.890049994    
 C2  0.609950006      0.781300008      0.919799984    
 H1  0.531120002      0.749040008      0.968879998    
 C3  0.649070024      0.793540001      0.910420001    
 C3  0.589579999      0.793540001      0.850929976    
 C4  0.658460021      0.805779994      0.871290028    
 C4  0.628709972      0.805779994      0.841539979    
 H2  0.673680007      0.793540001      0.935020030    
 H2  0.564979970      0.793540001      0.826319993    
 H3  0.690829992      0.815900028      0.863520026    
 H3  0.636479974      0.815900028      0.809170008    
 C1   6.55699968E-02  0.245250002      0.934430003    
 N1   4.40800004E-02  0.267899990      0.907079995    
 N1   9.29199979E-02  0.267899990      0.955919981    
 C2   5.86999990E-02  0.307139993      0.911549985    
 C2   8.84499997E-02  0.307139993      0.941299975    
 H1   6.13600016E-02  0.212689996      0.938639998    
 C3  0.107960001      0.342970014      0.951529980    
 C3   4.84700017E-02  0.342970014      0.892040014    
 C4   9.77199972E-02  0.378800005      0.932030022    
 C4   6.79700002E-02  0.378800005      0.902279973    
 H2  0.132560000      0.342970014      0.976140022    
 H2   2.38600001E-02  0.342970014      0.867439985    
 H3  0.113860004      0.408439994      0.940490007    
 H3   5.95100001E-02  0.408439994      0.886139989    
 C1  0.442039996      0.249650002      0.942040026    
 N1  0.455920011      0.232099995      0.907079995    
 N1  0.407079995      0.232099995      0.955919981    
 C2  0.428099990      0.201710001      0.898350000    
 C2  0.398350000      0.201710001      0.928099990    
 H1  0.457199991      0.274859995      0.957199991    
 C3  0.366800010      0.173960000      0.926289976    
 C3  0.426290005      0.173960000      0.866800010    
 C4  0.364989996      0.146200001      0.894739985    
 C4  0.394739985      0.146200001      0.864989996    
 H2  0.342200011      0.173960000      0.950890005    
 H2  0.450890005      0.173960000      0.842199981    
 H3  0.338889986      0.123250000      0.893239975    
 H3  0.393240005      0.123250000      0.838890016    
 C1   5.22699989E-02  0.766040027      0.947730005    
 N1   4.40800004E-02  0.767899990      0.907079995    
 N1   9.29199979E-02  0.767899990      0.955919981    
 C2   8.17399994E-02  0.771120012      0.888509989    
 C2  0.111489996      0.771120012      0.918259978    
 H1   2.89399996E-02  0.763360023      0.971059978    
 C3  0.152040005      0.774060011      0.907450020    
 C3   9.25500020E-02  0.774060011      0.847959995    
 C4  0.162839994      0.777000010      0.866909981    
 C4  0.133090004      0.777000010      0.837159991    
 H2  0.176640004      0.774060011      0.932060003    
 H2   6.79399967E-02  0.774060011      0.823360026    
 H3  0.196380004      0.779429972      0.857980013    
 H3  0.142020002      0.779429972      0.803619981    
 C1  0.926029980      0.253789991      0.926029980    
 N1  0.955919981      0.232099995      0.907079995    
 N1  0.907079995      0.232099995      0.955919981    
 C2  0.955850005      0.194529995      0.926100016    
 C2  0.926100016      0.194529995      0.955850005    
 H1  0.918169975      0.284960002      0.918169975    
 C3  0.919889987      0.160219997      0.979380012    
 C3  0.979380012      0.160219997      0.919889987    
 C4  0.943409979      0.125909999      0.973160028    
 C4  0.973160028      0.125909999      0.943409979    
 H2  0.895280004      0.160219997       3.98000004E-03
 H2   3.98000004E-03  0.160219997      0.895280004    
 H3  0.938269973       9.75299999E-02  0.992619991    
 H3  0.992619991       9.75299999E-02  0.938269973    
 C1  0.561529994      0.247089997      0.938470006    
 N1  0.544080019      0.267899990      0.907079995    
 N1  0.592920005      0.267899990      0.955919981    
 C2  0.565710008      0.303950012      0.904540002    
 C2  0.595459998      0.303950012      0.934289992    
 H1  0.551500022      0.217179999      0.948499978    
 C3  0.621370018      0.336860001      0.938120008    
 C3  0.561879992      0.336860001      0.878629982    
 C4  0.617529988      0.369769990      0.912220001    
 C4  0.587779999      0.369769990      0.882470012    
 H2  0.645969987      0.336860001      0.962729990    
 H2  0.537270010      0.336860001      0.854030013    
 H3  0.638960004      0.397000015      0.915390015    
 H3  0.584609985      0.397000015      0.861039996    
 C1  0.315569997      0.815569997       4.74999985E-03
 N1  0.342920005      0.794080019      0.982100010    
 N1  0.294079989      0.842920005      0.982100010    
 C2  0.338450015      0.808700025      0.942860007    
 C2  0.308699995      0.838450015      0.942860007    
 H1  0.311360002      0.811360002       3.73100005E-02
 C3  0.298469990      0.857959986      0.907029986    
 C3  0.357959986      0.798470020      0.907029986    
 C4  0.317970008      0.847720027      0.871200025    
 C4  0.347719997      0.817969978      0.871200025    
 H2  0.273860008      0.882560015      0.907029986    
 H2  0.382560015      0.773859978      0.907029986    
 H3  0.309509993      0.863860011      0.841560006    
 H3  0.363860011      0.809509993      0.841560006    
 C1  0.684430003      0.184430003       4.74999985E-03
 N1  0.705919981      0.157079995      0.982100010    
 N1  0.657079995      0.205919996      0.982100010    
 C2  0.691299975      0.161550000      0.942860007    
 C2  0.661549985      0.191300005      0.942860007    
 H1  0.688639998      0.188639998       3.73100005E-02
 C3  0.642040014      0.201529995      0.907029986    
 C3  0.701529980      0.142039999      0.907029986    
 C4  0.652279973      0.182030007      0.871200025    
 C4  0.682030022      0.152280003      0.871200025    
 H2  0.617439985      0.226140007      0.907029986    
 H2  0.726140022      0.117440000      0.907029986    
 H3  0.636139989      0.190490007      0.841560006    
 H3  0.690490007      0.136140004      0.841560006    
 C1  0.307960004      0.307960004      0.999650002    
 N1  0.342920005      0.294079989      0.982100010    
 N1  0.294079989      0.342920005      0.982100010    
 C2  0.351650000      0.321900010      0.951709986    
 C2  0.321900010      0.351650000      0.951709986    
 H1  0.292800009      0.292800009       2.48600002E-02
 C3  0.323709995      0.383199990      0.923959970    
 C3  0.383199990      0.323709995      0.923959970    
 C4  0.355260015      0.385010004      0.896200001    
 C4  0.385010004      0.355260015      0.896200001    
 H2  0.299109995      0.407799989      0.923959970    
 H2  0.407799989      0.299109995      0.923959970    
 H3  0.356759995      0.411110014      0.873250008    
 H3  0.411110014      0.356759995      0.873250008    
 C1  0.197730005      0.197730005      0.983959973    
 N1  0.205919996      0.157079995      0.982100010    
 N1  0.157079995      0.205919996      0.982100010    
 C2  0.168259993      0.138510004      0.978879988    
 C2  0.138510004      0.168259993      0.978879988    
 H1  0.221059993      0.221059993      0.986639977    
 C3   9.79600027E-02  0.157450005      0.975939989    
 C3  0.157450005       9.79600027E-02  0.975939989    
 C4   8.71599987E-02  0.116910003      0.972999990    
 C4  0.116910003       8.71599987E-02  0.972999990    
 H2   7.33600035E-02  0.182060003      0.975939989    
 H2  0.182060003       7.33600035E-02  0.975939989    
 H3   5.36199994E-02  0.107979998      0.970570028    
 H3  0.107979998       5.36199994E-02  0.970570028    
 C1  0.692040026      0.692040026      0.999650002    
 N1  0.705919981      0.657079995      0.982100010    
 N1  0.657079995      0.705919981      0.982100010    
 C2  0.678099990      0.648350000      0.951709986    
 C2  0.648350000      0.678099990      0.951709986    
 H1  0.707199991      0.707199991       2.48600002E-02
 C3  0.616800010      0.676289976      0.923959970    
 C3  0.676289976      0.616800010      0.923959970    
 C4  0.614989996      0.644739985      0.896200001    
 C4  0.644739985      0.614989996      0.896200001    
 H2  0.592199981      0.700890005      0.923959970    
 H2  0.700890005      0.592199981      0.923959970    
 H3  0.588890016      0.643239975      0.873250008    
 H3  0.643239975      0.588890016      0.873250008    
 C1  0.811529994      0.811529994       2.91000004E-03
 N1  0.794080019      0.842920005      0.982100010    
 N1  0.842920005      0.794080019      0.982100010    
 C2  0.815710008      0.845459998      0.946049988    
 C2  0.845459998      0.815710008      0.946049988    
 H1  0.801500022      0.801500022       3.28200012E-02
 C3  0.871370018      0.811879992      0.913139999    
 C3  0.811879992      0.871370018      0.913139999    
 C4  0.867529988      0.837779999      0.880230010    
 C4  0.837779999      0.867529988      0.880230010    
 H2  0.895969987      0.787270010      0.913139999    
 H2  0.787270010      0.895969987      0.913139999    
 H3  0.888960004      0.834609985      0.852999985    
 H3  0.834609985      0.888960004      0.852999985    
 C1  0.802269995      0.302269995      0.983959973    
 N1  0.794080019      0.342920005      0.982100010    
 N1  0.842920005      0.294079989      0.982100010    
 C2  0.831740022      0.361490011      0.978879988    
 C2  0.861490011      0.331739992      0.978879988    
 H1  0.778940022      0.278939992      0.986639977    
 C3  0.902040005      0.342550009      0.975939989    
 C3  0.842549980      0.402040005      0.975939989    
 C4  0.912840009      0.383089989      0.972999990    
 C4  0.883090019      0.412840009      0.972999990    
 H2  0.926639974      0.317939997      0.975939989    
 H2  0.817939997      0.426640004      0.975939989    
 H3  0.946380019      0.392019987      0.970570028    
 H3  0.892019987      0.446379989      0.970570028    
 C1  0.194900006      0.694899976      0.995190024    
 N1  0.157079995      0.705919981      0.982100010    
 N1  0.205919996      0.657079995      0.982100010    
 C2  0.143409997      0.673160017      0.959429979    
 C2  0.173160002      0.643410027      0.959429979    
 H1  0.214149997      0.714150012       1.40000004E-02
 C3  0.166840002      0.607349992      0.938730001    
 C3  0.107349999      0.666840017      0.938730001    
 C4  0.130779997      0.601029992      0.918030024    
 C4  0.101030000      0.630779982      0.918030024    
 H2  0.191440001      0.582750022      0.938730001    
 H2   8.27500001E-02  0.691439986      0.938730001    
 H3  0.125550002      0.571200013      0.900910020    
 H3   7.11999983E-02  0.625549972      0.900910020    
 C1  0.426030010      0.253789991      0.176029995    
 N1  0.407079995      0.232099995      0.205919996    
 N1  0.455920011      0.232099995      0.157079995    
 C2  0.426099986      0.194529995      0.205850005    
 C2  0.455850005      0.194529995      0.176100001    
 H1  0.418170005      0.284960002      0.168170005    
 C3  0.479380012      0.160219997      0.169890001    
 C3  0.419889987      0.160219997      0.229379997    
 C4  0.473159999      0.125909999      0.193409994    
 C4  0.443410009      0.125909999      0.223159999    
 H2  0.503979981      0.160219997      0.145280004    
 H2  0.395280004      0.160219997      0.253980011    
 H3  0.492619991       9.75299999E-02  0.188270003    
 H3  0.438270003       9.75299999E-02  0.242620006    
 C1  0.557959974      0.250349998      0.192039996    
 N1  0.592920005      0.267899990      0.205919996    
 N1  0.544080019      0.267899990      0.157079995    
 C2  0.601650000      0.298290014      0.178100005    
 C2  0.571900010      0.298290014      0.148350000    
 H1  0.542800009      0.225140005      0.207200006    
 C3  0.573710024      0.326040000      0.116800003    
 C3  0.633199990      0.326040000      0.176290005    
 C4  0.605260015      0.353799999      0.114990003    
 C4  0.635010004      0.353799999      0.144740000    
 H2  0.549109995      0.326040000       9.22000036E-02
 H2  0.657800019      0.326040000      0.200890005    
 H3  0.606760025      0.376749992       8.88900012E-02
 H3  0.661109984      0.376749992      0.143240005    
 C1  0.942040026      0.249650002      0.192039996    
 N1  0.907079995      0.232099995      0.205919996    
 N1  0.955919981      0.232099995      0.157079995    
 C2  0.898350000      0.201710001      0.178100005    
 C2  0.928099990      0.201710001      0.148350000    
 H1  0.957199991      0.274859995      0.207200006    
 C3  0.926289976      0.173960000      0.116800003    
 C3  0.866800010      0.173960000      0.176290005    
 C4  0.894739985      0.146200001      0.114990003    
 C4  0.864989996      0.146200001      0.144740000    
 H2  0.950890005      0.173960000       9.22000036E-02
 H2  0.842199981      0.173960000      0.200890005    
 H3  0.893239975      0.123250000       8.88900012E-02
 H3  0.838890016      0.123250000      0.143240005    
 C1   6.55699968E-02  0.745249987      0.184430003    
 N1   9.29199979E-02  0.767899990      0.205919996    
 N1   4.40800004E-02  0.767899990      0.157079995    
 C2   8.84499997E-02  0.807139993      0.191300005    
 C2   5.86999990E-02  0.807139993      0.161550000    
 H1   6.13600016E-02  0.712689996      0.188639998    
 C3   4.84700017E-02  0.842970014      0.142039999    
 C3  0.107960001      0.842970014      0.201529995    
 C4   6.79700002E-02  0.878799975      0.152280003    
 C4   9.77199972E-02  0.878799975      0.182030007    
 H2   2.38600001E-02  0.842970014      0.117440000    
 H2  0.132560000      0.842970014      0.226140007    
 H3   5.95100001E-02  0.908439994      0.136140004    
 H3  0.113860004      0.908439994      0.190490007    
 C1  0.573970020      0.746209979      0.176029995    
 N1  0.592920005      0.767899990      0.205919996    
 N1  0.544080019      0.767899990      0.157079995    
 C2  0.573899984      0.805469990      0.205850005    
 C2  0.544149995      0.805469990      0.176100001    
 H1  0.581830025      0.715040028      0.168170005    
 C3  0.520619988      0.839779973      0.169890001    
 C3  0.580110013      0.839779973      0.229379997    
 C4  0.526839972      0.874090016      0.193409994    
 C4  0.556590021      0.874090016      0.223159999    
 H2  0.496019989      0.839779973      0.145280004    
 H2  0.604719996      0.839779973      0.253980011    
 H3  0.507380009      0.902469993      0.188270003    
 H3  0.561730027      0.902469993      0.242620006    
 C1  0.922249973      0.751049995      0.172250003    
 N1  0.907079995      0.732100010      0.205919996    
 N1  0.955919981      0.732100010      0.157079995    
 C2  0.932659984      0.699280024      0.212410003    
 C2  0.962409973      0.699280024      0.182659999    
 H1  0.908949971      0.778280020      0.158950001    
 C3  0.991909981      0.669309974      0.182420000    
 C3  0.932420015      0.669309974      0.241909996    
 C4  0.991680026      0.639339983      0.211930007    
 C4  0.961929977      0.639339983      0.241679996    
 H2   1.65199991E-02  0.669309974      0.157820001    
 H2  0.907819986      0.669309974      0.266519994    
 H3   1.60900000E-02  0.614539981      0.211740002    
 H3  0.961740017      0.614539981      0.266090006    
 C1   6.98100030E-02  0.244949996      0.180189997    
 N1   9.29199979E-02  0.267899990      0.205919996    
 N1   4.40800004E-02  0.267899990      0.157079995    
 C2   8.11000019E-02  0.307660013      0.198650002    
 C2   5.13500012E-02  0.307660013      0.168899998    
 H1   7.17099980E-02  0.211960003      0.178289995    
 C3   3.44000012E-02  0.343970001      0.156110004    
 C3   9.38899964E-02  0.343970001      0.215599999    
 C4   4.71899994E-02  0.380270004      0.173060000    
 C4   7.69400001E-02  0.380270004      0.202810004    
 H2   9.78999957E-03  0.343970001      0.131510004    
 H2  0.118490003      0.343970001      0.240209997    
 H3   3.31600010E-02  0.410310000      0.162479997    
 H3   8.75200033E-02  0.410310000      0.216839999    
 C1  0.442039996      0.749650002      0.192039996    
 N1  0.407079995      0.732100010      0.205919996    
 N1  0.455920011      0.732100010      0.157079995    
 C2  0.398350000      0.701709986      0.178100005    
 C2  0.428099990      0.701709986      0.148350000    
 H1  0.457199991      0.774860024      0.207200006    
 C3  0.426290005      0.673959970      0.116800003    
 C3  0.366800010      0.673959970      0.176290005    
 C4  0.394739985      0.646200001      0.114990003    
 C4  0.364989996      0.646200001      0.144740000    
 H2  0.450890005      0.673959970       9.22000036E-02
 H2  0.342200011      0.673959970      0.200890005    
 H3  0.393240005      0.623250008       8.88900012E-02
 H3  0.338889986      0.623250008      0.143240005    
 C1  0.247089997       6.15300015E-02  0.188470006    
 N1  0.267899990       9.29199979E-02  0.205919996    
 N1  0.267899990       4.40800004E-02  0.157079995    
 C2  0.303950012       9.54599977E-02  0.184290007    
 C2  0.303950012       6.57100007E-02  0.154540002    
 H1  0.217179999       5.15000001E-02  0.198500007    
 C3  0.336860001       6.18799999E-02  0.128629997    
 C3  0.336860001      0.121370003      0.188119993    
 C4  0.369769990       8.77799988E-02  0.132469997    
 C4  0.369769990      0.117530003      0.162220001    
 H2  0.336860001       3.72699983E-02  0.104029998    
 H2  0.336860001      0.145970002      0.212730005    
 H3  0.397000015       8.46100003E-02  0.111040004    
 H3  0.397000015      0.138960004      0.165390000    
 C1  0.251049995      0.422250003      0.172250003    
 N1  0.232099995      0.407079995      0.205919996    
 N1  0.232099995      0.455920011      0.157079995    
 C2  0.199279994      0.432660013      0.212410003    
 C2  0.199279994      0.462410003      0.182659999    
 H1  0.278279990      0.408950001      0.158950001    
 C3  0.169310004      0.491910011      0.182420000    
 C3  0.169310004      0.432419986      0.241909996    
 C4  0.139339998      0.491679996      0.211930007    
 C4  0.139339998      0.461930007      0.241679996    
 H2  0.169310004      0.516520023      0.157820001    
 H2  0.169310004      0.407819986      0.266519994    
 H3  0.114540003      0.516089976      0.211740002    
 H3  0.114540003      0.461739987      0.266090006    
 C1  0.746209979      0.573970020      0.176029995    
 N1  0.767899990      0.592920005      0.205919996    
 N1  0.767899990      0.544080019      0.157079995    
 C2  0.805469990      0.573899984      0.205850005    
 C2  0.805469990      0.544149995      0.176100001    
 H1  0.715040028      0.581830025      0.168170005    
 C3  0.839779973      0.520619988      0.169890001    
 C3  0.839779973      0.580110013      0.229379997    
 C4  0.874090016      0.526839972      0.193409994    
 C4  0.874090016      0.556590021      0.223159999    
 H2  0.839779973      0.496019989      0.145280004    
 H2  0.839779973      0.604719996      0.253980011    
 H3  0.902469993      0.507380009      0.188270003    
 H3  0.902469993      0.561730027      0.242620006    
 C1  0.245250002      0.565569997      0.184430003    
 N1  0.267899990      0.592920005      0.205919996    
 N1  0.267899990      0.544080019      0.157079995    
 C2  0.307139993      0.588450015      0.191300005    
 C2  0.307139993      0.558700025      0.161550000    
 H1  0.212689996      0.561360002      0.188639998    
 C3  0.342970014      0.548470020      0.142039999    
 C3  0.342970014      0.607959986      0.201529995    
 C4  0.378800005      0.567969978      0.152280003    
 C4  0.378800005      0.597720027      0.182030007    
 H2  0.342970014      0.523859978      0.117440000    
 H2  0.342970014      0.632560015      0.226140007    
 H3  0.408439994      0.559509993      0.136140004    
 H3  0.408439994      0.613860011      0.190490007    
 C1  0.754750013      0.434430003      0.184430003    
 N1  0.732100010      0.407079995      0.205919996    
 N1  0.732100010      0.455920011      0.157079995    
 C2  0.692860007      0.411549985      0.191300005    
 C2  0.692860007      0.441300005      0.161550000    
 H1  0.787310004      0.438639998      0.188639998    
 C3  0.657029986      0.451530010      0.142039999    
 C3  0.657029986      0.392040014      0.201529995    
 C4  0.621200025      0.432029992      0.152280003    
 C4  0.621200025      0.402280003      0.182030007    
 H2  0.657029986      0.476139992      0.117440000    
 H2  0.657029986      0.367439985      0.226140007    
 H3  0.591560006      0.440490007      0.136140004    
 H3  0.591560006      0.386139989      0.190490007    
 C1  0.744949996       6.98100030E-02  0.180189997    
 N1  0.767899990       9.29199979E-02  0.205919996    
 N1  0.767899990       4.40800004E-02  0.157079995    
 C2  0.807659984       8.11000019E-02  0.198650002    
 C2  0.807659984       5.13500012E-02  0.168899998    
 H1  0.711960018       7.17099980E-02  0.178289995    
 C3  0.843970001       3.44000012E-02  0.156110004    
 C3  0.843970001       9.38899964E-02  0.215599999    
 C4  0.880270004       4.71899994E-02  0.173060000    
 C4  0.880270004       7.69400001E-02  0.202810004    
 H2  0.843970001       9.78999957E-03  0.131510004    
 H2  0.843970001      0.118490003      0.240209997    
 H3  0.910309970       3.31600010E-02  0.162479997    
 H3  0.910309970       8.75200033E-02  0.216839999    
 C1  0.251049995      0.922249973      0.172250003    
 N1  0.232099995      0.907079995      0.205919996    
 N1  0.232099995      0.955919981      0.157079995    
 C2  0.199279994      0.932659984      0.212410003    
 C2  0.199279994      0.962409973      0.182659999    
 H1  0.278279990      0.908949971      0.158950001    
 C3  0.169310004      0.991909981      0.182420000    
 C3  0.169310004      0.932420015      0.241909996    
 C4  0.139339998      0.991680026      0.211930007    
 C4  0.139339998      0.961929977      0.241679996    
 H2  0.169310004       1.65199991E-02  0.157820001    
 H2  0.169310004      0.907819986      0.266519994    
 H3  0.114540003       1.60900000E-02  0.211740002    
 H3  0.114540003      0.961740017      0.266090006    
 C1  0.733959973      0.947730005      0.197730005    
 N1  0.732100010      0.907079995      0.205919996    
 N1  0.732100010      0.955919981      0.157079995    
 C2  0.728879988      0.888509989      0.168259993    
 C2  0.728879988      0.918259978      0.138510004    
 H1  0.736639977      0.971059978      0.221059993    
 C3  0.725939989      0.907450020       9.79600027E-02
 C3  0.725939989      0.847959995      0.157450005    
 C4  0.722999990      0.866909981       8.71599987E-02
 C4  0.722999990      0.837159991      0.116910003    
 H2  0.725939989      0.932060003       7.33600035E-02
 H2  0.725939989      0.823360026      0.182060003    
 H3  0.720570028      0.857980013       5.36199994E-02
 H3  0.720570028      0.803619981      0.107979998    
 C1  0.184430003      0.684430003      0.254750013    
 N1  0.157079995      0.705919981      0.232099995    
 N1  0.205919996      0.657079995      0.232099995    
 C2  0.161550000      0.691299975      0.192860007    
 C2  0.191300005      0.661549985      0.192860007    
 H1  0.188639998      0.688639998      0.287310004    
 C3  0.201529995      0.642040014      0.157030001    
 C3  0.142039999      0.701529980      0.157030001    
 C4  0.182030007      0.652279973      0.121200003    
 C4  0.152280003      0.682030022      0.121200003    
 H2  0.226140007      0.617439985      0.157030001    
 H2  0.117440000      0.726140022      0.157030001    
 H3  0.190490007      0.636139989       9.15599987E-02
 H3  0.136140004      0.690490007       9.15599987E-02
 C1  0.697730005      0.697730005      0.233960003    
 N1  0.657079995      0.705919981      0.232099995    
 N1  0.705919981      0.657079995      0.232099995    
 C2  0.638509989      0.668259978      0.228880003    
 C2  0.668259978      0.638509989      0.228880003    
 H1  0.721059978      0.721059978      0.236640006    
 C3  0.657450020      0.597959995      0.225940004    
 C3  0.597959995      0.657450020      0.225940004    
 C4  0.616909981      0.587159991      0.223000005    
 C4  0.587159991      0.616909981      0.223000005    
 H2  0.682060003      0.573360026      0.225940004    
 H2  0.573360026      0.682060003      0.225940004    
 H3  0.607980013      0.553619981      0.220569998    
 H3  0.553619981      0.607980013      0.220569998    
 C1  0.327749997      0.327749997      0.251049995    
 N1  0.294079989      0.342920005      0.232099995    
 N1  0.342920005      0.294079989      0.232099995    
 C2  0.287589997      0.317339987      0.199279994    
 C2  0.317339987      0.287589997      0.199279994    
 H1  0.341049999      0.341049999      0.278279990    
 C3  0.317580014      0.258089989      0.169310004    
 C3  0.258089989      0.317580014      0.169310004    
 C4  0.288069993      0.258320004      0.139339998    
 C4  0.258320004      0.288069993      0.139339998    
 H2  0.342180014      0.233480006      0.169310004    
 H2  0.233480006      0.342180014      0.169310004    
 H3  0.288260013      0.233909994      0.114540003    
 H3  0.233909994      0.288260013      0.114540003    
 C1  0.176029995      0.176029995      0.253789991    
 N1  0.205919996      0.157079995      0.232099995    
 N1  0.157079995      0.205919996      0.232099995    
 C2  0.205850005      0.176100001      0.194529995    
 C2  0.176100001      0.205850005      0.194529995    
 H1  0.168170005      0.168170005      0.284960002    
 C3  0.169890001      0.229379997      0.160219997    
 C3  0.229379997      0.169890001      0.160219997    
 C4  0.193409994      0.223159999      0.125909999    
 C4  0.223159999      0.193409994      0.125909999    
 H2  0.145280004      0.253980011      0.160219997    
 H2  0.253980011      0.145280004      0.160219997    
 H3  0.188270003      0.242620006       9.75299999E-02
 H3  0.242620006      0.188270003       9.75299999E-02
 C1  0.697730005      0.197730005      0.233960003    
 N1  0.705919981      0.157079995      0.232099995    
 N1  0.657079995      0.205919996      0.232099995    
 C2  0.668259978      0.138510004      0.228880003    
 C2  0.638509989      0.168259993      0.228880003    
 H1  0.721059978      0.221059993      0.236640006    
 C3  0.597959995      0.157450005      0.225940004    
 C3  0.657450020       9.79600027E-02  0.225940004    
 C4  0.587159991      0.116910003      0.223000005    
 C4  0.616909981       8.71599987E-02  0.223000005    
 H2  0.573360026      0.182060003      0.225940004    
 H2  0.682060003       7.33600035E-02  0.225940004    
 H3  0.553619981      0.107979998      0.220569998    
 H3  0.607980013       5.36199994E-02  0.220569998    
 C1  0.802269995      0.802269995      0.233960003    
 N1  0.842920005      0.794080019      0.232099995    
 N1  0.794080019      0.842920005      0.232099995    
 C2  0.861490011      0.831740022      0.228880003    
 C2  0.831740022      0.861490011      0.228880003    
 H1  0.778940022      0.778940022      0.236640006    
 C3  0.842549980      0.902040005      0.225940004    
 C3  0.902040005      0.842549980      0.225940004    
 C4  0.883090019      0.912840009      0.223000005    
 C4  0.912840009      0.883090019      0.223000005    
 H2  0.817939997      0.926639974      0.225940004    
 H2  0.926639974      0.817939997      0.225940004    
 H3  0.892019987      0.946380019      0.220569998    
 H3  0.946380019      0.892019987      0.220569998    
 C1  0.802269995      0.302269995      0.233960003    
 N1  0.794080019      0.342920005      0.232099995    
 N1  0.842920005      0.294079989      0.232099995    
 C2  0.831740022      0.361490011      0.228880003    
 C2  0.861490011      0.331739992      0.228880003    
 H1  0.778940022      0.278939992      0.236640006    
 C3  0.902040005      0.342550009      0.225940004    
 C3  0.842549980      0.402040005      0.225940004    
 C4  0.912840009      0.383089989      0.223000005    
 C4  0.883090019      0.412840009      0.223000005    
 H2  0.926639974      0.317939997      0.225940004    
 H2  0.817939997      0.426640004      0.225940004    
 H3  0.946380019      0.392019987      0.220569998    
 H3  0.892019987      0.446379989      0.220569998    
 C1  0.327749997      0.827750027      0.251049995    
 N1  0.294079989      0.842920005      0.232099995    
 N1  0.342920005      0.794080019      0.232099995    
 C2  0.287589997      0.817340016      0.199279994    
 C2  0.317339987      0.787590027      0.199279994    
 H1  0.341049999      0.841050029      0.278279990    
 C3  0.317580014      0.758090019      0.169310004    
 C3  0.258089989      0.817579985      0.169310004    
 C4  0.288069993      0.758319974      0.139339998    
 C4  0.258320004      0.788070023      0.139339998    
 H2  0.342180014      0.733479977      0.169310004    
 H2  0.233480006      0.842180014      0.169310004    
 H3  0.288260013      0.733910024      0.114540003    
 H3  0.233909994      0.788259983      0.114540003    
 C1  0.176029995      0.323969990      0.246209994    
 N1  0.205919996      0.342920005      0.267899990    
 N1  0.157079995      0.294079989      0.267899990    
 C2  0.205850005      0.323900014      0.305469990    
 C2  0.176100001      0.294149995      0.305469990    
 H1  0.168170005      0.331829995      0.215039998    
 C3  0.169890001      0.270619988      0.339780003    
 C3  0.229379997      0.330110013      0.339780003    
 C4  0.193409994      0.276840001      0.374089986    
 C4  0.223159999      0.306589991      0.374089986    
 H2  0.145280004      0.246020004      0.339780003    
 H2  0.253980011      0.354719996      0.339780003    
 H3  0.188270003      0.257380009      0.402469993    
 H3  0.242620006      0.311729997      0.402469993    
 C1  0.688470006      0.811529994      0.247089997    
 N1  0.657079995      0.794080019      0.267899990    
 N1  0.705919981      0.842920005      0.267899990    
 C2  0.654540002      0.815710008      0.303950012    
 C2  0.684289992      0.845459998      0.303950012    
 H1  0.698499978      0.801500022      0.217179999    
 C3  0.688120008      0.871370018      0.336860001    
 C3  0.628629982      0.811879992      0.336860001    
 C4  0.662220001      0.867529988      0.369769990    
 C4  0.632470012      0.837779999      0.369769990    
 H2  0.712729990      0.895969987      0.336860001    
 H2  0.604030013      0.787270010      0.336860001    
 H3  0.665390015      0.888960004      0.397000015    
 H3  0.611039996      0.834609985      0.397000015    
 C1  0.807959974      0.192039996      0.250349998    
 N1  0.794080019      0.157079995      0.267899990    
 N1  0.842920005      0.205919996      0.267899990    
 C2  0.821900010      0.148350000      0.298290014    
 C2  0.851650000      0.178100005      0.298290014    
 H1  0.792800009      0.207200006      0.225140005    
 C3  0.883199990      0.176290005      0.326040000    
 C3  0.823710024      0.116800003      0.326040000    
 C4  0.885010004      0.144740000      0.353799999    
 C4  0.855260015      0.114990003      0.353799999    
 H2  0.907800019      0.200890005      0.326040000    
 H2  0.799109995       9.22000036E-02  0.326040000    
 H3  0.911109984      0.143240005      0.376749992    
 H3  0.856760025       8.88900012E-02  0.376749992    
 C1  0.311529994      0.188470006      0.247089997    
 N1  0.294079989      0.157079995      0.267899990    
 N1  0.342920005      0.205919996      0.267899990    
 C2  0.315710008      0.154540002      0.303950012    
 C2  0.345459998      0.184290007      0.303950012    
 H1  0.301499993      0.198500007      0.217179999    
 C3  0.371369988      0.188119993      0.336860001    
 C3  0.311879992      0.128629997      0.336860001    
 C4  0.367529988      0.162220001      0.369769990    
 C4  0.337779999      0.132469997      0.369769990    
 H2  0.395969987      0.212730005      0.336860001    
 H2  0.287270010      0.104029998      0.336860001    
 H3  0.388960004      0.165390000      0.397000015    
 H3  0.334609985      0.111040004      0.397000015    
 C1  0.697730005      0.302269995      0.266039997    
 N1  0.705919981      0.342920005      0.267899990    
 N1  0.657079995      0.294079989      0.267899990    
 C2  0.668259978      0.361490011      0.271120012    
 C2  0.638509989      0.331739992      0.271120012    
 H1  0.721059978      0.278939992      0.263359994    
 C3  0.597959995      0.342550009      0.274060011    
 C3  0.657450020      0.402040005      0.274060011    
 C4  0.587159991      0.383089989      0.277000010    
 C4  0.616909981      0.412840009      0.277000010    
 H2  0.573360026      0.317939997      0.274060011    
 H2  0.682060003      0.426640004      0.274060011    
 H3  0.553619981      0.392019987      0.279430002    
 H3  0.607980013      0.446379989      0.279430002    
 C1  0.180189997      0.819809973      0.244949996    
 N1  0.157079995      0.794080019      0.267899990    
 N1  0.205919996      0.842920005      0.267899990    
 C2  0.168899998      0.801349998      0.307660013    
 C2  0.198650002      0.831099987      0.307660013    
 H1  0.178289995      0.821709991      0.211960003    
 C3  0.215599999      0.843890011      0.343970001    
 C3  0.156110004      0.784399986      0.343970001    
 C4  0.202810004      0.826940000      0.380270004    
 C4  0.173060000      0.797190011      0.380270004    
 H2  0.240209997      0.868489981      0.343970001    
 H2  0.131510004      0.759790003      0.343970001    
 H3  0.216839999      0.837520003      0.410310000    
 H3  0.162479997      0.783159971      0.410310000    
 C1  0.302269995      0.697730005      0.266039997    
 N1  0.294079989      0.657079995      0.267899990    
 N1  0.342920005      0.705919981      0.267899990    
 C2  0.331739992      0.638509989      0.271120012    
 C2  0.361490011      0.668259978      0.271120012    
 H1  0.278939992      0.721059978      0.263359994    
 C3  0.402040005      0.657450020      0.274060011    
 C3  0.342550009      0.597959995      0.274060011    
 C4  0.412840009      0.616909981      0.277000010    
 C4  0.383089989      0.587159991      0.277000010    
 H2  0.426640004      0.682060003      0.274060011    
 H2  0.317939997      0.573360026      0.274060011    
 H3  0.446379989      0.607980013      0.279430002    
 H3  0.392019987      0.553619981      0.279430002    
 C1  0.823970020      0.676029980      0.246209994    
 N1  0.842920005      0.705919981      0.267899990    
 N1  0.794080019      0.657079995      0.267899990    
 C2  0.823899984      0.705850005      0.305469990    
 C2  0.794149995      0.676100016      0.305469990    
 H1  0.831830025      0.668169975      0.215039998    
 C3  0.770619988      0.669889987      0.339780003    
 C3  0.830110013      0.729380012      0.339780003    
 C4  0.776839972      0.693409979      0.374089986    
 C4  0.806590021      0.723160028      0.374089986    
 H2  0.746020019      0.645280004      0.339780003    
 H2  0.854719996      0.753979981      0.339780003    
 H3  0.757380009      0.688269973      0.402469993    
 H3  0.811730027      0.742619991      0.402469993    
 C1  0.754750013      0.565569997      0.315569997    
 N1  0.732100010      0.544080019      0.342920005    
 N1  0.732100010      0.592920005      0.294079989    
 C2  0.692860007      0.558700025      0.338450015    
 C2  0.692860007      0.588450015      0.308699995    
 H1  0.787310004      0.561360002      0.311360002    
 C3  0.657029986      0.607959986      0.298469990    
 C3  0.657029986      0.548470020      0.357959986    
 C4  0.621200025      0.597720027      0.317970008    
 C4  0.621200025      0.567969978      0.347719997    
 H2  0.657029986      0.632560015      0.273860008    
 H2  0.657029986      0.523859978      0.382560015    
 H3  0.591560006      0.613860011      0.309509993    
 H3  0.591560006      0.559509993      0.363860011    
 C1  0.239840001       5.31699993E-02  0.303169996    
 N1  0.232099995       4.40800004E-02  0.342920005    
 N1  0.232099995       9.29199979E-02  0.294079989    
 C2  0.218700007       8.02000016E-02  0.359950006    
 C2  0.218700007      0.109949999      0.330199987    
 H1  0.250959992       3.11200004E-02  0.281120002    
 C3  0.206459999      0.149069995      0.339579999    
 C3  0.206459999       8.95799994E-02  0.399069995    
 C4  0.194220006      0.158460006      0.378710002    
 C4  0.194220006      0.128710002      0.408459991    
 H2  0.206459999      0.173679993      0.314980000    
 H2  0.206459999       6.49800003E-02  0.423680007    
 H3  0.184100002      0.190830007      0.386480004    
 H3  0.184100002      0.136480004      0.440829992    
 C1  0.745190024       5.51000014E-02  0.305099994    
 N1  0.732100010       4.40800004E-02  0.342920005    
 N1  0.732100010       9.29199979E-02  0.294079989    
 C2  0.709429979       7.68399984E-02  0.356590003    
 C2  0.709429979      0.106590003      0.326840013    
 H1  0.763999999       3.58499996E-02  0.285849988    
 C3  0.688730001      0.142649993      0.333160013    
 C3  0.688730001       8.31599981E-02  0.392650008    
 C4  0.668030024      0.148969993      0.369219989    
 C4  0.668030024      0.119220003      0.398970008    
 H2  0.688730001      0.167250007      0.308560014    
 H2  0.688730001       5.85599989E-02  0.417250007    
 H3  0.650910020      0.178800002      0.374449998    
 H3  0.650910020      0.124449998      0.428799987    
 C1  0.747089982      0.938470006      0.311529994    
 N1  0.767899990      0.955919981      0.342920005    
 N1  0.767899990      0.907079995      0.294079989    
 C2  0.803950012      0.934289992      0.345459998    
 C2  0.803950012      0.904540002      0.315710008    
 H1  0.717180014      0.948499978      0.301499993    
 C3  0.836860001      0.878629982      0.311879992    
 C3  0.836860001      0.938120008      0.371369988    
 C4  0.869769990      0.882470012      0.337779999    
 C4  0.869769990      0.912220001      0.367529988    
 H2  0.836860001      0.854030013      0.287270010    
 H2  0.836860001      0.962729990      0.395969987    
 H3  0.897000015      0.861039996      0.334609985    
 H3  0.897000015      0.915390015      0.388960004    
 C1  0.253789991      0.573970020      0.323969990    
 N1  0.232099995      0.544080019      0.342920005    
 N1  0.232099995      0.592920005      0.294079989    
 C2  0.194529995      0.544149995      0.323900014    
 C2  0.194529995      0.573899984      0.294149995    
 H1  0.284960002      0.581830025      0.331829995    
 C3  0.160219997      0.580110013      0.270619988    
 C3  0.160219997      0.520619988      0.330110013    
 C4  0.125909999      0.556590021      0.276840001    
 C4  0.125909999      0.526839972      0.306589991    
 H2  0.160219997      0.604719996      0.246020004    
 H2  0.160219997      0.496019989      0.354719996    
 H3   9.75299999E-02  0.561730027      0.257380009    
 H3   9.75299999E-02  0.507380009      0.311729997    
 C1  0.754809976      0.444900006      0.305099994    
 N1  0.767899990      0.455920011      0.342920005    
 N1  0.767899990      0.407079995      0.294079989    
 C2  0.790570021      0.423159987      0.356590003    
 C2  0.790570021      0.393409997      0.326840013    
 H1  0.736000001      0.464150012      0.285849988    
 C3  0.811269999      0.357349992      0.333160013    
 C3  0.811269999      0.416839987      0.392650008    
 C4  0.831969976      0.351029992      0.369219989    
 C4  0.831969976      0.380780011      0.398970008    
 H2  0.811269999      0.332749993      0.308560014    
 H2  0.811269999      0.441439986      0.417250007    
 H3  0.849089980      0.321200013      0.374449998    
 H3  0.849089980      0.375550002      0.428799987    
 C1  0.244949996      0.430189997      0.319810003    
 N1  0.267899990      0.455920011      0.342920005    
 N1  0.267899990      0.407079995      0.294079989    
 C2  0.307660013      0.448650002      0.331099987    
 C2  0.307660013      0.418900013      0.301349998    
 H1  0.211960003      0.428290009      0.321709991    
 C3  0.343970001      0.406109989      0.284399986    
 C3  0.343970001      0.465600014      0.343890011    
 C4  0.380270004      0.423060000      0.297190011    
 C4  0.380270004      0.452809989      0.326940000    
 H2  0.343970001      0.381509990      0.259790003    
 H2  0.343970001      0.490209997      0.368490010    
 H3  0.410310000      0.412479997      0.283160001    
 H3  0.410310000      0.466839999      0.337520003    
 C1  0.246209994      0.926029980      0.323969990    
 N1  0.267899990      0.955919981      0.342920005    
 N1  0.267899990      0.907079995      0.294079989    
 C2  0.305469990      0.955850005      0.323900014    
 C2  0.305469990      0.926100016      0.294149995    
 H1  0.215039998      0.918169975      0.331829995    
 C3  0.339780003      0.919889987      0.270619988    
 C3  0.339780003      0.979380012      0.330110013    
 C4  0.374089986      0.943409979      0.276840001    
 C4  0.374089986      0.973160028      0.306589991    
 H2  0.339780003      0.895280004      0.246020004    
 H2  0.339780003       3.98000004E-03  0.354719996    
 H3  0.402469993      0.938269973      0.257380009    
 H3  0.402469993      0.992619991      0.311729997    
 C1  0.552269995      0.233960003      0.302269995    
 N1  0.544080019      0.232099995      0.342920005    
 N1  0.592920005      0.232099995      0.294079989    
 C2  0.581740022      0.228880003      0.361490011    
 C2  0.611490011      0.228880003      0.331739992    
 H1  0.528940022      0.236640006      0.278939992    
 C3  0.652040005      0.225940004      0.342550009    
 C3  0.592549980      0.225940004      0.402040005    
 C4  0.662840009      0.223000005      0.383089989    
 C4  0.633090019      0.223000005      0.412840009    
 H2  0.676639974      0.225940004      0.317939997    
 H2  0.567939997      0.225940004      0.426640004    
 H3  0.696380019      0.220569998      0.392019987    
 H3  0.642019987      0.220569998      0.446379989    
 C1  0.555100024      0.745190024      0.305099994    
 N1  0.544080019      0.732100010      0.342920005    
 N1  0.592920005      0.732100010      0.294079989    
 C2  0.576839983      0.709429979      0.356590003    
 C2  0.606589973      0.709429979      0.326840013    
 H1  0.535849988      0.763999999      0.285849988    
 C3  0.642650008      0.688730001      0.333160013    
 C3  0.583159983      0.688730001      0.392650008    
 C4  0.648970008      0.668030024      0.369219989    
 C4  0.619220018      0.668030024      0.398970008    
 H2  0.667249978      0.688730001      0.308560014    
 H2  0.558560014      0.688730001      0.417250007    
 H3  0.678799987      0.650910020      0.374449998    
 H3  0.624450028      0.650910020      0.428799987    
 C1   7.39699975E-02  0.753790021      0.323969990    
 N1   4.40800004E-02  0.732100010      0.342920005    
 N1   9.29199979E-02  0.732100010      0.294079989    
 C2   4.41499986E-02  0.694530010      0.323900014    
 C2   7.38999993E-02  0.694530010      0.294149995    
 H1   8.18300024E-02  0.784959972      0.331829995    
 C3   8.01099986E-02  0.660220027      0.270619988    
 C3   2.06199996E-02  0.660220027      0.330110013    
 C4   5.65899983E-02  0.625909984      0.276840001    
 C4   2.68399995E-02  0.625909984      0.306589991    
 H2  0.104719996      0.660220027      0.246020004    
 H2  0.996020019      0.660220027      0.354719996    
 H3   6.17300011E-02  0.597530007      0.257380009    
 H3   7.37999985E-03  0.597530007      0.311729997    
 C1   7.77499974E-02  0.251049995      0.327749997    
 N1   4.40800004E-02  0.232099995      0.342920005    
 N1   9.29199979E-02  0.232099995      0.294079989    
 C2   3.75900008E-02  0.199279994      0.317339987    
 C2   6.73400015E-02  0.199279994      0.287589997    
 H1   9.10499990E-02  0.278279990      0.341049999    
 C3   6.75799996E-02  0.169310004      0.258089989    
 C3   8.08999967E-03  0.169310004      0.317580014    
 C4   3.80700007E-02  0.139339998      0.258320004    
 C4   8.32000002E-03  0.139339998      0.288069993    
 H2   9.21799988E-02  0.169310004      0.233480006    
 H2  0.983479977      0.169310004      0.342180014    
 H3   3.82600017E-02  0.114540003      0.233909994    
 H3  0.983910024      0.114540003      0.288260013    
 C1  0.944899976      0.754809976      0.305099994    
 N1  0.955919981      0.767899990      0.342920005    
 N1  0.907079995      0.767899990      0.294079989    
 C2  0.923160017      0.790570021      0.356590003    
 C2  0.893410027      0.790570021      0.326840013    
 H1  0.964150012      0.736000001      0.285849988    
 C3  0.857349992      0.811269999      0.333160013    
 C3  0.916840017      0.811269999      0.392650008    
 C4  0.851029992      0.831969976      0.369219989    
 C4  0.880779982      0.831969976      0.398970008    
 H2  0.832750022      0.811269999      0.308560014    
 H2  0.941439986      0.811269999      0.417250007    
 H3  0.821200013      0.849089980      0.374449998    
 H3  0.875549972      0.849089980      0.428799987    
 C1  0.426030010      0.746209979      0.323969990    
 N1  0.455920011      0.767899990      0.342920005    
 N1  0.407079995      0.767899990      0.294079989    
 C2  0.455850005      0.805469990      0.323900014    
 C2  0.426099986      0.805469990      0.294149995    
 H1  0.418170005      0.715040028      0.331829995    
 C3  0.419889987      0.839779973      0.270619988    
 C3  0.479380012      0.839779973      0.330110013    
 C4  0.443410009      0.874090016      0.276840001    
 C4  0.473159999      0.874090016      0.306589991    
 H2  0.395280004      0.839779973      0.246020004    
 H2  0.503979981      0.839779973      0.354719996    
 H3  0.438270003      0.902469993      0.257380009    
 H3  0.492619991      0.902469993      0.311729997    
 C1  0.938470006      0.247089997      0.311529994    
 N1  0.955919981      0.267899990      0.342920005    
 N1  0.907079995      0.267899990      0.294079989    
 C2  0.934289992      0.303950012      0.345459998    
 C2  0.904540002      0.303950012      0.315710008    
 H1  0.948499978      0.217179999      0.301499993    
 C3  0.878629982      0.336860001      0.311879992    
 C3  0.938120008      0.336860001      0.371369988    
 C4  0.882470012      0.369769990      0.337779999    
 C4  0.912220001      0.369769990      0.367529988    
 H2  0.854030013      0.336860001      0.287270010    
 H2  0.962729990      0.336860001      0.395969987    
 H3  0.861039996      0.397000015      0.334609985    
 H3  0.915390015      0.397000015      0.388960004    
 C1  0.444900006      0.254810005      0.305099994    
 N1  0.455920011      0.267899990      0.342920005    
 N1  0.407079995      0.267899990      0.294079989    
 C2  0.423159987      0.290569991      0.356590003    
 C2  0.393409997      0.290569991      0.326840013    
 H1  0.464150012      0.236000001      0.285849988    
 C3  0.357349992      0.311269999      0.333160013    
 C3  0.416839987      0.311269999      0.392650008    
 C4  0.351029992      0.331970006      0.369219989    
 C4  0.380780011      0.331970006      0.398970008    
 H2  0.332749993      0.311269999      0.308560014    
 H2  0.441439986      0.311269999      0.417250007    
 H3  0.321200013      0.349090010      0.374449998    
 H3  0.375550002      0.349090010      0.428799987    
 C1  0.501049995      0.672249973      0.422250003    
 N1  0.482100010      0.657079995      0.455920011    
 N1  0.482100010      0.705919981      0.407079995    
 C2  0.449279994      0.682659984      0.462410003    
 C2  0.449279994      0.712409973      0.432660013    
 H1  0.528280020      0.658949971      0.408950001    
 C3  0.419310004      0.741909981      0.432419986    
 C3  0.419310004      0.682420015      0.491910011    
 C4  0.389340013      0.741680026      0.461930007    
 C4  0.389340013      0.711929977      0.491679996    
 H2  0.419310004      0.766520023      0.407819986    
 H2  0.419310004      0.657819986      0.516520023    
 H3  0.364540011      0.766089976      0.461739987    
 H3  0.364540011      0.711740017      0.516089976    
 C1  0.995190024      0.694899976      0.444900006    
 N1  0.982100010      0.657079995      0.455920011    
 N1  0.982100010      0.705919981      0.407079995    
 C2  0.959429979      0.643410027      0.423159987    
 C2  0.959429979      0.673160017      0.393409997    
 H1   1.40000004E-02  0.714150012      0.464150012    
 C3  0.938730001      0.666840017      0.357349992    
 C3  0.938730001      0.607349992      0.416839987    
 C4  0.918030024      0.630779982      0.351029992    
 C4  0.918030024      0.601029992      0.380780011    
 H2  0.938730001      0.691439986      0.332749993    
 H2  0.938730001      0.582750022      0.441439986    
 H3  0.900910020      0.625549972      0.321200013    
 H3  0.900910020      0.571200013      0.375550002    
 C1   1.60399992E-02  0.302269995      0.447730005    
 N1   1.78999994E-02  0.342920005      0.455920011    
 N1   1.78999994E-02  0.294079989      0.407079995    
 C2   2.11200006E-02  0.361490011      0.418260008    
 C2   2.11200006E-02  0.331739992      0.388509989    
 H1   1.33600002E-02  0.278939992      0.471060008    
 C3   2.40599997E-02  0.342550009      0.347959995    
 C3   2.40599997E-02  0.402040005      0.407449991    
 C4   2.70000007E-02  0.383089989      0.337159991    
 C4   2.70000007E-02  0.412840009      0.366910011    
 H2   2.40599997E-02  0.317939997      0.323359996    
 H2   2.40599997E-02  0.426640004      0.432060003    
 H3   2.94300001E-02  0.392019987      0.303620011    
 H3   2.94300001E-02  0.446379989      0.357980013    
 C1  0.495189995      0.194900006      0.444900006    
 N1  0.482100010      0.157079995      0.455920011    
 N1  0.482100010      0.205919996      0.407079995    
 C2  0.459430009      0.143409997      0.423159987    
 C2  0.459430009      0.173160002      0.393409997    
 H1  0.513999999      0.214149997      0.464150012    
 C3  0.438730001      0.166840002      0.357349992    
 C3  0.438730001      0.107349999      0.416839987    
 C4  0.418029994      0.130779997      0.351029992    
 C4  0.418029994      0.101030000      0.380780011    
 H2  0.438730001      0.191440001      0.332749993    
 H2  0.438730001       8.27500001E-02  0.441439986    
 H3  0.400909990      0.125550002      0.321200013    
 H3  0.400909990       7.11999983E-02  0.375550002    
 C1   1.60399992E-02  0.802269995      0.447730005    
 N1   1.78999994E-02  0.842920005      0.455920011    
 N1   1.78999994E-02  0.794080019      0.407079995    
 C2   2.11200006E-02  0.861490011      0.418260008    
 C2   2.11200006E-02  0.831740022      0.388509989    
 H1   1.33600002E-02  0.778940022      0.471060008    
 C3   2.40599997E-02  0.842549980      0.347959995    
 C3   2.40599997E-02  0.902040005      0.407449991    
 C4   2.70000007E-02  0.883090019      0.337159991    
 C4   2.70000007E-02  0.912840009      0.366910011    
 H2   2.40599997E-02  0.817939997      0.323359996    
 H2   2.40599997E-02  0.926639974      0.432060003    
 H3   2.94300001E-02  0.892019987      0.303620011    
 H3   2.94300001E-02  0.946380019      0.357980013    
 C1   4.74999985E-03  0.184430003      0.434430003    
 N1  0.982100010      0.157079995      0.455920011    
 N1  0.982100010      0.205919996      0.407079995    
 C2  0.942860007      0.161550000      0.441300005    
 C2  0.942860007      0.191300005      0.411549985    
 H1   3.73100005E-02  0.188639998      0.438639998    
 C3  0.907029986      0.201529995      0.392040014    
 C3  0.907029986      0.142039999      0.451530010    
 C4  0.871200025      0.182030007      0.402280003    
 C4  0.871200025      0.152280003      0.432029992    
 H2  0.907029986      0.226140007      0.367439985    
 H2  0.907029986      0.117440000      0.476139992    
 H3  0.841560006      0.190490007      0.386139989    
 H3  0.841560006      0.136140004      0.440490007    
 C1  0.496210009      0.823970020      0.426030010    
 N1  0.517899990      0.842920005      0.455920011    
 N1  0.517899990      0.794080019      0.407079995    
 C2  0.555469990      0.823899984      0.455850005    
 C2  0.555469990      0.794149995      0.426099986    
 H1  0.465039998      0.831830025      0.418170005    
 C3  0.589779973      0.770619988      0.419889987    
 C3  0.589779973      0.830110013      0.479380012    
 C4  0.624090016      0.776839972      0.443410009    
 C4  0.624090016      0.806590021      0.473159999    
 H2  0.589779973      0.746020019      0.395280004    
 H2  0.589779973      0.854719996      0.503979981    
 H3  0.652469993      0.757380009      0.438270003    
 H3  0.652469993      0.811730027      0.492619991    
 C1  0.500349998      0.307960004      0.442039996    
 N1  0.517899990      0.342920005      0.455920011    
 N1  0.517899990      0.294079989      0.407079995    
 C2  0.548290014      0.351650000      0.428099990    
 C2  0.548290014      0.321900010      0.398350000    
 H1  0.475140005      0.292800009      0.457199991    
 C3  0.576040030      0.323709995      0.366800010    
 C3  0.576040030      0.383199990      0.426290005    
 C4  0.603799999      0.355260015      0.364989996    
 C4  0.603799999      0.385010004      0.394739985    
 H2  0.576040030      0.299109995      0.342200011    
 H2  0.576040030      0.407799989      0.450890005    
 H3  0.626749992      0.356759995      0.338889986    
 H3  0.626749992      0.411110014      0.393240005    
 C1  0.319810003      0.994949996      0.430189997    
 N1  0.342920005       1.78999994E-02  0.455920011    
 N1  0.294079989       1.78999994E-02  0.407079995    
 C2  0.331099987       5.76599985E-02  0.448650002    
 C2  0.301349998       5.76599985E-02  0.418900013    
 H1  0.321709991      0.961960018      0.428290009    
 C3  0.284399986       9.39700007E-02  0.406109989    
 C3  0.343890011       9.39700007E-02  0.465600014    
 C4  0.297190011      0.130270004      0.423060000    
 C4  0.326940000      0.130270004      0.452809989    
 H2  0.259790003       9.39700007E-02  0.381509990    
 H2  0.368490010       9.39700007E-02  0.490209997    
 H3  0.283160001      0.160310000      0.412479997    
 H3  0.337520003      0.160310000      0.466839999    
 C1  0.676029980       3.78999999E-03  0.426030010    
 N1  0.657079995      0.982100010      0.455920011    
 N1  0.705919981      0.982100010      0.407079995    
 C2  0.676100016      0.944530010      0.455850005    
 C2  0.705850005      0.944530010      0.426099986    
 H1  0.668169975       3.49600017E-02  0.418170005    
 C3  0.729380012      0.910220027      0.419889987    
 C3  0.669889987      0.910220027      0.479380012    
 C4  0.723160028      0.875909984      0.443410009    
 C4  0.693409979      0.875909984      0.473159999    
 H2  0.753979981      0.910220027      0.395280004    
 H2  0.645280004      0.910220027      0.503979981    
 H3  0.742619991      0.847530007      0.438270003    
 H3  0.688269973      0.847530007      0.492619991    
 C1  0.684430003      0.504750013      0.434430003    
 N1  0.657079995      0.482100010      0.455920011    
 N1  0.705919981      0.482100010      0.407079995    
 C2  0.661549985      0.442860007      0.441300005    
 C2  0.691299975      0.442860007      0.411549985    
 H1  0.688639998      0.537310004      0.438639998    
 C3  0.701529980      0.407029986      0.392040014    
 C3  0.642040014      0.407029986      0.451530010    
 C4  0.682030022      0.371199995      0.402280003    
 C4  0.652279973      0.371199995      0.432029992    
 H2  0.726140022      0.407029986      0.367439985    
 H2  0.617439985      0.407029986      0.476139992    
 H3  0.690490007      0.341560006      0.386139989    
 H3  0.636139989      0.341560006      0.440490007    
 C1  0.172250003       1.04999996E-03  0.422250003    
 N1  0.157079995      0.982100010      0.455920011    
 N1  0.205919996      0.982100010      0.407079995    
 C2  0.182659999      0.949280024      0.462410003    
 C2  0.212410003      0.949280024      0.432660013    
 H1  0.158950001       2.82799993E-02  0.408950001    
 C3  0.241909996      0.919309974      0.432419986    
 C3  0.182420000      0.919309974      0.491910011    
 C4  0.241679996      0.889339983      0.461930007    
 C4  0.211930007      0.889339983      0.491679996    
 H2  0.266519994      0.919309974      0.407819986    
 H2  0.157820001      0.919309974      0.516520023    
 H3  0.266090006      0.864539981      0.461739987    
 H3  0.211740002      0.864539981      0.516089976    
 C1  0.323969990      0.496210009      0.426030010    
 N1  0.342920005      0.517899990      0.455920011    
 N1  0.294079989      0.517899990      0.407079995    
 C2  0.323900014      0.555469990      0.455850005    
 C2  0.294149995      0.555469990      0.426099986    
 H1  0.331829995      0.465039998      0.418170005    
 C3  0.270619988      0.589779973      0.419889987    
 C3  0.330110013      0.589779973      0.479380012    
 C4  0.276840001      0.624090016      0.443410009    
 C4  0.306589991      0.624090016      0.473159999    
 H2  0.246020004      0.589779973      0.395280004    
 H2  0.354719996      0.589779973      0.503979981    
 H3  0.257380009      0.652469993      0.438270003    
 H3  0.311729997      0.652469993      0.492619991    
 C1  0.802269995       1.60399992E-02  0.447730005    
 N1  0.842920005       1.78999994E-02  0.455920011    
 N1  0.794080019       1.78999994E-02  0.407079995    
 C2  0.861490011       2.11200006E-02  0.418260008    
 C2  0.831740022       2.11200006E-02  0.388509989    
 H1  0.778940022       1.33600002E-02  0.471060008    
 C3  0.842549980       2.40599997E-02  0.347959995    
 C3  0.902040005       2.40599997E-02  0.407449991    
 C4  0.883090019       2.70000007E-02  0.337159991    
 C4  0.912840009       2.70000007E-02  0.366910011    
 H2  0.817939997       2.40599997E-02  0.323359996    
 H2  0.926639974       2.40599997E-02  0.432060003    
 H3  0.892019987       2.94300001E-02  0.303620011    
 H3  0.946380019       2.94300001E-02  0.357980013    
 C1  0.802269995      0.516040027      0.447730005    
 N1  0.842920005      0.517899990      0.455920011    
 N1  0.794080019      0.517899990      0.407079995    
 C2  0.861490011      0.521120012      0.418260008    
 C2  0.831740022      0.521120012      0.388509989    
 H1  0.778940022      0.513360023      0.471060008    
 C3  0.842549980      0.524060011      0.347959995    
 C3  0.902040005      0.524060011      0.407449991    
 C4  0.883090019      0.527000010      0.337159991    
 C4  0.912840009      0.527000010      0.366910011    
 H2  0.817939997      0.524060011      0.323359996    
 H2  0.926639974      0.524060011      0.432060003    
 H3  0.892019987      0.529429972      0.303620011    
 H3  0.946380019      0.529429972      0.357980013    
 C1  0.176029995      0.503790021      0.426030010    
 N1  0.157079995      0.482100010      0.455920011    
 N1  0.205919996      0.482100010      0.407079995    
 C2  0.176100001      0.444530010      0.455850005    
 C2  0.205850005      0.444530010      0.426099986    
 H1  0.168170005      0.534959972      0.418170005    
 C3  0.229379997      0.410219997      0.419889987    
 C3  0.169890001      0.410219997      0.479380012    
 C4  0.223159999      0.375910014      0.443410009    
 C4  0.193409994      0.375910014      0.473159999    
 H2  0.253980011      0.410219997      0.395280004    
 H2  0.145280004      0.410219997      0.503979981    
 H3  0.242620006      0.347530007      0.438270003    
 H3  0.188270003      0.347530007      0.492619991    
 C1  0.947730005      0.947730005      0.483960003    
 N1  0.907079995      0.955919981      0.482100010    
 N1  0.955919981      0.907079995      0.482100010    
 C2  0.888509989      0.918259978      0.478879988    
 C2  0.918259978      0.888509989      0.478879988    
 H1  0.971059978      0.971059978      0.486640006    
 C3  0.907450020      0.847959995      0.475939989    
 C3  0.847959995      0.907450020      0.475939989    
 C4  0.866909981      0.837159991      0.472999990    
 C4  0.837159991      0.866909981      0.472999990    
 H2  0.932060003      0.823360026      0.475939989    
 H2  0.823360026      0.932060003      0.475939989    
 H3  0.857980013      0.803619981      0.470569998    
 H3  0.803619981      0.857980013      0.470569998    
 C1  0.447730005      0.447730005      0.483960003    
 N1  0.407079995      0.455920011      0.482100010    
 N1  0.455920011      0.407079995      0.482100010    
 C2  0.388509989      0.418260008      0.478879988    
 C2  0.418260008      0.388509989      0.478879988    
 H1  0.471060008      0.471060008      0.486640006    
 C3  0.407449991      0.347959995      0.475939989    
 C3  0.347959995      0.407449991      0.475939989    
 C4  0.366910011      0.337159991      0.472999990    
 C4  0.337159991      0.366910011      0.472999990    
 H2  0.432060003      0.323359996      0.475939989    
 H2  0.323359996      0.432060003      0.475939989    
 H3  0.357980013      0.303620011      0.470569998    
 H3  0.303620011      0.357980013      0.470569998    
 C1  0.573970020      0.573970020      0.503790021    
 N1  0.544080019      0.592920005      0.482100010    
 N1  0.592920005      0.544080019      0.482100010    
 C2  0.544149995      0.573899984      0.444530010    
 C2  0.573899984      0.544149995      0.444530010    
 H1  0.581830025      0.581830025      0.534959972    
 C3  0.580110013      0.520619988      0.410219997    
 C3  0.520619988      0.580110013      0.410219997    
 C4  0.556590021      0.526839972      0.375910014    
 C4  0.526839972      0.556590021      0.375910014    
 H2  0.604719996      0.496019989      0.410219997    
 H2  0.496019989      0.604719996      0.410219997    
 H3  0.561730027      0.507380009      0.347530007    
 H3  0.507380009      0.561730027      0.347530007    
 C1  0.947730005      0.447730005      0.483960003    
 N1  0.907079995      0.455920011      0.482100010    
 N1  0.955919981      0.407079995      0.482100010    
 C2  0.888509989      0.418260008      0.478879988    
 C2  0.918259978      0.388509989      0.478879988    
 H1  0.971059978      0.471060008      0.486640006    
 C3  0.907450020      0.347959995      0.475939989    
 C3  0.847959995      0.407449991      0.475939989    
 C4  0.866909981      0.337159991      0.472999990    
 C4  0.837159991      0.366910011      0.472999990    
 H2  0.932060003      0.323359996      0.475939989    
 H2  0.823360026      0.432060003      0.475939989    
 H3  0.857980013      0.303620011      0.470569998    
 H3  0.803619981      0.357980013      0.470569998    
 C1  0.446830004      0.946829975      0.489840001    
 N1  0.455920011      0.907079995      0.482100010    
 N1  0.407079995      0.955919981      0.482100010    
 C2  0.419800013      0.890049994      0.468699992    
 C2  0.390049994      0.919799984      0.468699992    
 H1  0.468879998      0.968879998      0.500959992    
 C3  0.350930005      0.910420001      0.456459999    
 C3  0.410420001      0.850929976      0.456459999    
 C4  0.341540009      0.871290028      0.444220006    
 C4  0.371289998      0.841539979      0.444220006    
 H2  0.326319993      0.935020030      0.456459999    
 H2  0.435020000      0.826319993      0.456459999    
 H3  0.309170008      0.863520026      0.434100002    
 H3  0.363519996      0.809170008      0.434100002    
 C1  0.569809973       6.98100030E-02  0.505050004    
 N1  0.544080019       9.29199979E-02  0.482100010    
 N1  0.592920005       4.40800004E-02  0.482100010    
 C2  0.551349998       8.11000019E-02  0.442339987    
 C2  0.581099987       5.13500012E-02  0.442339987    
 H1  0.571709991       7.17099980E-02  0.538039982    
 C3  0.593890011       3.44000012E-02  0.406029999    
 C3  0.534399986       9.38899964E-02  0.406029999    
 C4  0.576940000       4.71899994E-02  0.369729996    
 C4  0.547190011       7.69400001E-02  0.369729996    
 H2  0.618489981       9.78999957E-03  0.406029999    
 H2  0.509790003      0.118490003      0.406029999    
 H3  0.587520003       3.31600010E-02  0.339690000    
 H3  0.533159971       8.75200033E-02  0.339690000    
 C1   5.31699993E-02  0.553170025      0.489840001    
 N1   9.29199979E-02  0.544080019      0.482100010    
 N1   4.40800004E-02  0.592920005      0.482100010    
 C2  0.109949999      0.580200016      0.468699992    
 C2   8.02000016E-02  0.609950006      0.468699992    
 H1   3.11200004E-02  0.531120002      0.500959992    
 C3   8.95799994E-02  0.649070024      0.456459999    
 C3  0.149069995      0.589579999      0.456459999    
 C4  0.128710002      0.658460021      0.444220006    
 C4  0.158460006      0.628709972      0.444220006    
 H2   6.49800003E-02  0.673680007      0.456459999    
 H2  0.173679993      0.564979970      0.456459999    
 H3  0.136480004      0.690829992      0.434100002    
 H3  0.190830007      0.636479974      0.434100002    
 C1   7.39699975E-02   7.39699975E-02  0.503790021    
 N1   9.29199979E-02   4.40800004E-02  0.482100010    
 N1   4.40800004E-02   9.29199979E-02  0.482100010    
 C2   7.38999993E-02   4.41499986E-02  0.444530010    
 C2   4.41499986E-02   7.38999993E-02  0.444530010    
 H1   8.18300024E-02   8.18300024E-02  0.534959972    
 C3   2.06199996E-02   8.01099986E-02  0.410219997    
 C3   8.01099986E-02   2.06199996E-02  0.410219997    
 C4   2.68399995E-02   5.65899983E-02  0.375910014    
 C4   5.65899983E-02   2.68399995E-02  0.375910014    
 H2  0.996020019      0.104719996      0.410219997    
 H2  0.104719996      0.996020019      0.410219997    
 H3   7.37999985E-03   6.17300011E-02  0.347530007    
 H3   6.17300011E-02   7.37999985E-03  0.347530007    
 C1  0.552269995      0.447730005      0.516040027    
 N1  0.544080019      0.407079995      0.517899990    
 N1  0.592920005      0.455920011      0.517899990    
 C2  0.581740022      0.388509989      0.521120012    
 C2  0.611490011      0.418260008      0.521120012    
 H1  0.528940022      0.471060008      0.513360023    
 C3  0.652040005      0.407449991      0.524060011    
 C3  0.592549980      0.347959995      0.524060011    
 C4  0.662840009      0.366910011      0.527000010    
 C4  0.633090019      0.337159991      0.527000010    
 H2  0.676639974      0.432060003      0.524060011    
 H2  0.567939997      0.323359996      0.524060011    
 H3  0.696380019      0.357980013      0.529429972    
 H3  0.642019987      0.303620011      0.529429972    
 C1  0.947730005      0.552269995      0.516040027    
 N1  0.907079995      0.544080019      0.517899990    
 N1  0.955919981      0.592920005      0.517899990    
 C2  0.888509989      0.581740022      0.521120012    
 C2  0.918259978      0.611490011      0.521120012    
 H1  0.971059978      0.528940022      0.513360023    
 C3  0.907450020      0.652040005      0.524060011    
 C3  0.847959995      0.592549980      0.524060011    
 C4  0.866909981      0.662840009      0.527000010    
 C4  0.837159991      0.633090019      0.527000010    
 H2  0.932060003      0.676639974      0.524060011    
 H2  0.823360026      0.567939997      0.524060011    
 H3  0.857980013      0.696380019      0.529429972    
 H3  0.803619981      0.642019987      0.529429972    
 C1  0.446830004       5.31699993E-02  0.510160029    
 N1  0.455920011       9.29199979E-02  0.517899990    
 N1  0.407079995       4.40800004E-02  0.517899990    
 C2  0.419800013      0.109949999      0.531300008    
 C2  0.390049994       8.02000016E-02  0.531300008    
 H1  0.468879998       3.11200004E-02  0.499040008    
 C3  0.350930005       8.95799994E-02  0.543540001    
 C3  0.410420001      0.149069995      0.543540001    
 C4  0.341540009      0.128710002      0.555779994    
 C4  0.371289998      0.158460006      0.555779994    
 H2  0.326319993       6.49800003E-02  0.543540001    
 H2  0.435020000      0.173679993      0.543540001    
 H3  0.309170008      0.136480004      0.565900028    
 H3  0.363519996      0.190830007      0.565900028    
 C1  0.946829975       5.31699993E-02  0.510160029    
 N1  0.907079995       4.40800004E-02  0.517899990    
 N1  0.955919981       9.29199979E-02  0.517899990    
 C2  0.890049994       8.02000016E-02  0.531300008    
 C2  0.919799984      0.109949999      0.531300008    
 H1  0.968879998       3.11200004E-02  0.499040008    
 C3  0.910420001      0.149069995      0.543540001    
 C3  0.850929976       8.95799994E-02  0.543540001    
 C4  0.871290028      0.158460006      0.555779994    
 C4  0.841539979      0.128710002      0.555779994    
 H2  0.935020030      0.173679993      0.543540001    
 H2  0.826319993       6.49800003E-02  0.543540001    
 H3  0.863520026      0.190830007      0.565900028    
 H3  0.809170008      0.136480004      0.565900028    
 C1  0.561529994      0.938470006      0.497090012    
 N1  0.544080019      0.907079995      0.517899990    
 N1  0.592920005      0.955919981      0.517899990    
 C2  0.565710008      0.904540002      0.553950012    
 C2  0.595459998      0.934289992      0.553950012    
 H1  0.551500022      0.948499978      0.467180014    
 C3  0.621370018      0.938120008      0.586860001    
 C3  0.561879992      0.878629982      0.586860001    
 C4  0.617529988      0.912220001      0.619769990    
 C4  0.587779999      0.882470012      0.619769990    
 H2  0.645969987      0.962729990      0.586860001    
 H2  0.537270010      0.854030013      0.586860001    
 H3  0.638960004      0.915390015      0.647000015    
 H3  0.584609985      0.861039996      0.647000015    
 C1   6.55699968E-02  0.434430003      0.495249987    
 N1   9.29199979E-02  0.455920011      0.517899990    
 N1   4.40800004E-02  0.407079995      0.517899990    
 C2   8.84499997E-02  0.441300005      0.557139993    
 C2   5.86999990E-02  0.411549985      0.557139993    
 H1   6.13600016E-02  0.438639998      0.462689996    
 C3   4.84700017E-02  0.392040014      0.592970014    
 C3  0.107960001      0.451530010      0.592970014    
 C4   6.79700002E-02  0.402280003      0.628799975    
 C4   9.77199972E-02  0.432029992      0.628799975    
 H2   2.38600001E-02  0.367439985      0.592970014    
 H2  0.132560000      0.476139992      0.592970014    
 H3   5.95100001E-02  0.386139989      0.658439994    
 H3  0.113860004      0.440490007      0.658439994    
 C1  0.444900006      0.555100024      0.504809976    
 N1  0.407079995      0.544080019      0.517899990    
 N1  0.455920011      0.592920005      0.517899990    
 C2  0.393409997      0.576839983      0.540570021    
 C2  0.423159987      0.606589973      0.540570021    
 H1  0.464150012      0.535849988      0.486000001    
 C3  0.416839987      0.642650008      0.561269999    
 C3  0.357349992      0.583159983      0.561269999    
 C4  0.380780011      0.648970008      0.581969976    
 C4  0.351029992      0.619220018      0.581969976    
 H2  0.441439986      0.667249978      0.561269999    
 H2  0.332749993      0.558560014      0.561269999    
 H3  0.375550002      0.678799987      0.599089980    
 H3  0.321200013      0.624450028      0.599089980    
 C1   5.51000014E-02  0.944899976      0.504809976    
 N1   9.29199979E-02  0.955919981      0.517899990    
 N1   4.40800004E-02  0.907079995      0.517899990    
 C2  0.106590003      0.923160017      0.540570021    
 C2   7.68399984E-02  0.893410027      0.540570021    
 H1   3.58499996E-02  0.964150012      0.486000001    
 C3   8.31599981E-02  0.857349992      0.561269999    
 C3  0.142649993      0.916840017      0.561269999    
 C4  0.119220003      0.851029992      0.581969976    
 C4  0.148969993      0.880779982      0.581969976    
 H2   5.85599989E-02  0.832750022      0.561269999    
 H2  0.167250007      0.941439986      0.561269999    
 H3  0.124449998      0.821200013      0.599089980    
 H3  0.178800002      0.875549972      0.599089980    
 C1  0.180189997      0.494949996      0.569809973    
 N1  0.157079995      0.517899990      0.544080019    
 N1  0.205919996      0.517899990      0.592920005    
 C2  0.168899998      0.557659984      0.551349998    
 C2  0.198650002      0.557659984      0.581099987    
 H1  0.178289995      0.461959988      0.571709991    
 C3  0.215599999      0.593970001      0.593890011    
 C3  0.156110004      0.593970001      0.534399986    
 C4  0.202810004      0.630270004      0.576940000    
 C4  0.173060000      0.630270004      0.547190011    
 H2  0.240209997      0.593970001      0.618489981    
 H2  0.131510004      0.593970001      0.509790003    
 H3  0.216839999      0.660309970      0.587520003    
 H3  0.162479997      0.660309970      0.533159971    
 C1  0.303169996      0.489840001      0.553170025    
 N1  0.342920005      0.482100010      0.544080019    
 N1  0.294079989      0.482100010      0.592920005    
 C2  0.359950006      0.468699992      0.580200016    
 C2  0.330199987      0.468699992      0.609950006    
 H1  0.281120002      0.500959992      0.531120002    
 C3  0.339579999      0.456459999      0.649070024    
 C3  0.399069995      0.456459999      0.589579999    
 C4  0.378710002      0.444220006      0.658460021    
 C4  0.408459991      0.444220006      0.628709972    
 H2  0.314980000      0.456459999      0.673680007    
 H2  0.423680007      0.456459999      0.564979970    
 H3  0.386480004      0.434100002      0.690829992    
 H3  0.440829992      0.434100002      0.636479974    
 C1  0.197730005       1.60399992E-02  0.552269995    
 N1  0.157079995       1.78999994E-02  0.544080019    
 N1  0.205919996       1.78999994E-02  0.592920005    
 C2  0.138510004       2.11200006E-02  0.581740022    
 C2  0.168259993       2.11200006E-02  0.611490011    
 H1  0.221059993       1.33600002E-02  0.528940022    
 C3  0.157450005       2.40599997E-02  0.652040005    
 C3   9.79600027E-02   2.40599997E-02  0.592549980    
 C4  0.116910003       2.70000007E-02  0.662840009    
 C4   8.71599987E-02   2.70000007E-02  0.633090019    
 H2  0.182060003       2.40599997E-02  0.676639974    
 H2   7.33600035E-02   2.40599997E-02  0.567939997    
 H3  0.107979998       2.94300001E-02  0.696380019    
 H3   5.36199994E-02   2.94300001E-02  0.642019987    
 C1  0.803170025      0.989839971      0.553170025    
 N1  0.842920005      0.982100010      0.544080019    
 N1  0.794080019      0.982100010      0.592920005    
 C2  0.859950006      0.968699992      0.580200016    
 C2  0.830200016      0.968699992      0.609950006    
 H1  0.781120002       9.59999976E-04  0.531120002    
 C3  0.839579999      0.956459999      0.649070024    
 C3  0.899070024      0.956459999      0.589579999    
 C4  0.878709972      0.944220006      0.658460021    
 C4  0.908460021      0.944220006      0.628709972    
 H2  0.814979970      0.956459999      0.673680007    
 H2  0.923680007      0.956459999      0.564979970    
 H3  0.886479974      0.934099972      0.690829992    
 H3  0.940829992      0.934099972      0.636479974    
 C1  0.803170025      0.489840001      0.553170025    
 N1  0.842920005      0.482100010      0.544080019    
 N1  0.794080019      0.482100010      0.592920005    
 C2  0.859950006      0.468699992      0.580200016    
 C2  0.830200016      0.468699992      0.609950006    
 H1  0.781120002      0.500959992      0.531120002    
 C3  0.839579999      0.456459999      0.649070024    
 C3  0.899070024      0.456459999      0.589579999    
 C4  0.878709972      0.444220006      0.658460021    
 C4  0.908460021      0.444220006      0.628709972    
 H2  0.814979970      0.456459999      0.673680007    
 H2  0.923680007      0.456459999      0.564979970    
 H3  0.886479974      0.434100002      0.690829992    
 H3  0.940829992      0.434100002      0.636479974    
 C1  0.684430003      0.995249987      0.565569997    
 N1  0.657079995       1.78999994E-02  0.544080019    
 N1  0.705919981       1.78999994E-02  0.592920005    
 C2  0.661549985       5.71400002E-02  0.558700025    
 C2  0.691299975       5.71400002E-02  0.588450015    
 H1  0.688639998      0.962689996      0.561360002    
 C3  0.701529980       9.29699987E-02  0.607959986    
 C3  0.642040014       9.29699987E-02  0.548470020    
 C4  0.682030022      0.128800005      0.597720027    
 C4  0.652279973      0.128800005      0.567969978    
 H2  0.726140022       9.29699987E-02  0.632560015    
 H2  0.617439985       9.29699987E-02  0.523859978    
 H3  0.690490007      0.158439994      0.613860011    
 H3  0.636139989      0.158439994      0.559509993    
 C1  0.303169996      0.989839971      0.553170025    
 N1  0.342920005      0.982100010      0.544080019    
 N1  0.294079989      0.982100010      0.592920005    
 C2  0.359950006      0.968699992      0.580200016    
 C2  0.330199987      0.968699992      0.609950006    
 H1  0.281120002       9.59999976E-04  0.531120002    
 C3  0.339579999      0.956459999      0.649070024    
 C3  0.399069995      0.956459999      0.589579999    
 C4  0.378710002      0.944220006      0.658460021    
 C4  0.408459991      0.944220006      0.628709972    
 H2  0.314980000      0.956459999      0.673680007    
 H2  0.423680007      0.956459999      0.564979970    
 H3  0.386480004      0.934099972      0.690829992    
 H3  0.440829992      0.934099972      0.636479974    
 C1  0.676029980      0.496210009      0.573970020    
 N1  0.657079995      0.517899990      0.544080019    
 N1  0.705919981      0.517899990      0.592920005    
 C2  0.676100016      0.555469990      0.544149995    
 C2  0.705850005      0.555469990      0.573899984    
 H1  0.668169975      0.465039998      0.581830025    
 C3  0.729380012      0.589779973      0.580110013    
 C3  0.669889987      0.589779973      0.520619988    
 C4  0.723160028      0.624090016      0.556590021    
 C4  0.693409979      0.624090016      0.526839972    
 H2  0.753979981      0.589779973      0.604719996    
 H2  0.645280004      0.589779973      0.496019989    
 H3  0.742619991      0.652469993      0.561730027    
 H3  0.688269973      0.652469993      0.507380009    
 C1  0.502910018      0.811529994      0.561529994    
 N1  0.482100010      0.842920005      0.544080019    
 N1  0.482100010      0.794080019      0.592920005    
 C2  0.446049988      0.845459998      0.565710008    
 C2  0.446049988      0.815710008      0.595459998    
 H1  0.532819986      0.801500022      0.551500022    
 C3  0.413139999      0.811879992      0.621370018    
 C3  0.413139999      0.871370018      0.561879992    
 C4  0.380230010      0.837779999      0.617529988    
 C4  0.380230010      0.867529988      0.587779999    
 H2  0.413139999      0.787270010      0.645969987    
 H2  0.413139999      0.895969987      0.537270010    
 H3  0.352999985      0.834609985      0.638960004    
 H3  0.352999985      0.888960004      0.584609985    
 C1   2.91000004E-03  0.811529994      0.561529994    
 N1  0.982100010      0.842920005      0.544080019    
 N1  0.982100010      0.794080019      0.592920005    
 C2  0.946049988      0.845459998      0.565710008    
 C2  0.946049988      0.815710008      0.595459998    
 H1   3.28200012E-02  0.801500022      0.551500022    
 C3  0.913139999      0.811879992      0.621370018    
 C3  0.913139999      0.871370018      0.561879992    
 C4  0.880230010      0.837779999      0.617529988    
 C4  0.880230010      0.867529988      0.587779999    
 H2  0.913139999      0.787270010      0.645969987    
 H2  0.913139999      0.895969987      0.537270010    
 H3  0.852999985      0.834609985      0.638960004    
 H3  0.852999985      0.888960004      0.584609985    
 C1  0.997089982      0.688470006      0.561529994    
 N1   1.78999994E-02  0.657079995      0.544080019    
 N1   1.78999994E-02  0.705919981      0.592920005    
 C2   5.39500006E-02  0.654540002      0.565710008    
 C2   5.39500006E-02  0.684289992      0.595459998    
 H1  0.967180014      0.698499978      0.551500022    
 C3   8.68600011E-02  0.688120008      0.621370018    
 C3   8.68600011E-02  0.628629982      0.561879992    
 C4  0.119769998      0.662220001      0.617529988    
 C4  0.119769998      0.632470012      0.587779999    
 H2   8.68600011E-02  0.712729990      0.645969987    
 H2   8.68600011E-02  0.604030013      0.537270010    
 H3  0.147000000      0.665390015      0.638960004    
 H3  0.147000000      0.611039996      0.584609985    
 C1  0.998950005      0.172250003      0.577750027    
 N1   1.78999994E-02  0.157079995      0.544080019    
 N1   1.78999994E-02  0.205919996      0.592920005    
 C2   5.07199988E-02  0.182659999      0.537590027    
 C2   5.07199988E-02  0.212410003      0.567340016    
 H1  0.971719980      0.158950001      0.591050029    
 C3   8.06899965E-02  0.241909996      0.567579985    
 C3   8.06899965E-02  0.182420000      0.508090019    
 C4  0.110660002      0.241679996      0.538070023    
 C4  0.110660002      0.211930007      0.508319974    
 H2   8.06899965E-02  0.266519994      0.592180014    
 H2   8.06899965E-02  0.157820001      0.483480006    
 H3  0.135460004      0.266090006      0.538259983    
 H3  0.135460004      0.211740002      0.483909994    
 C1   2.91000004E-03  0.311529994      0.561529994    
 N1  0.982100010      0.342920005      0.544080019    
 N1  0.982100010      0.294079989      0.592920005    
 C2  0.946049988      0.345459998      0.565710008    
 C2  0.946049988      0.315710008      0.595459998    
 H1   3.28200012E-02  0.301499993      0.551500022    
 C3  0.913139999      0.311879992      0.621370018    
 C3  0.913139999      0.371369988      0.561879992    
 C4  0.880230010      0.337779999      0.617529988    
 C4  0.880230010      0.367529988      0.587779999    
 H2  0.913139999      0.287270010      0.645969987    
 H2  0.913139999      0.395969987      0.537270010    
 H3  0.852999985      0.334609985      0.638960004    
 H3  0.852999985      0.388960004      0.584609985    
 C1  0.502910018      0.311529994      0.561529994    
 N1  0.482100010      0.342920005      0.544080019    
 N1  0.482100010      0.294079989      0.592920005    
 C2  0.446049988      0.345459998      0.565710008    
 C2  0.446049988      0.315710008      0.595459998    
 H1  0.532819986      0.301499993      0.551500022    
 C3  0.413139999      0.311879992      0.621370018    
 C3  0.413139999      0.371369988      0.561879992    
 C4  0.380230010      0.337779999      0.617529988    
 C4  0.380230010      0.367529988      0.587779999    
 H2  0.413139999      0.287270010      0.645969987    
 H2  0.413139999      0.395969987      0.537270010    
 H3  0.352999985      0.334609985      0.638960004    
 H3  0.352999985      0.388960004      0.584609985    
 C1  0.516040027      0.697730005      0.552269995    
 N1  0.517899990      0.657079995      0.544080019    
 N1  0.517899990      0.705919981      0.592920005    
 C2  0.521120012      0.638509989      0.581740022    
 C2  0.521120012      0.668259978      0.611490011    
 H1  0.513360023      0.721059978      0.528940022    
 C3  0.524060011      0.657450020      0.652040005    
 C3  0.524060011      0.597959995      0.592549980    
 C4  0.527000010      0.616909981      0.662840009    
 C4  0.527000010      0.587159991      0.633090019    
 H2  0.524060011      0.682060003      0.676639974    
 H2  0.524060011      0.573360026      0.567939997    
 H3  0.529429972      0.607980013      0.696380019    
 H3  0.529429972      0.553619981      0.642019987    
 C1  0.516040027      0.197730005      0.552269995    
 N1  0.517899990      0.157079995      0.544080019    
 N1  0.517899990      0.205919996      0.592920005    
 C2  0.521120012      0.138510004      0.581740022    
 C2  0.521120012      0.168259993      0.611490011    
 H1  0.513360023      0.221059993      0.528940022    
 C3  0.524060011      0.157450005      0.652040005    
 C3  0.524060011       9.79600027E-02  0.592549980    
 C4  0.527000010      0.116910003      0.662840009    
 C4  0.527000010       8.71599987E-02  0.633090019    
 H2  0.524060011      0.182060003      0.676639974    
 H2  0.524060011       7.33600035E-02  0.567939997    
 H3  0.529429972      0.107979998      0.696380019    
 H3  0.529429972       5.36199994E-02  0.642019987    
