data_subtitutions
_audit_creation_method    igor
_audit_author_name 'sponge bob'
_cell_length_a         33.9819984
_cell_length_b         33.9819984
_cell_length_c         33.9819984
_cell_angle_alpha         90.0000000
_cell_angle_beta         90.0000000
_cell_angle_gamma         90.0000000
_cell_volume      39241.6054688
_symmetry_space_group_name_hall 'p 1'
_symmetry_space_group_name_h-m 'p 1'
_symmetry_int_tables_number 1
_symmetry_equiv_pos_as_xyz 'x,y,z'
loop_
_atom_site_label
_atom_site_fract_x
_atom_site_fract_y
_atom_site_fract_z
_atom_site_charge
C1        0.1885300      0.0039500      0.3114800       0.4291000
C2        0.1842600      0.4495700      0.3437500      -0.0839000
H2        0.1888500      0.4294500      0.3617000       0.1128000
C3        0.2030500      0.0427500      0.2969500      -0.4526000
N1        0.2048700      0.4841600      0.3413900      -0.3879000
Zn        0.2500000      0.0000000      0.3750000       0.6918000
C1        0.0039500      0.3114800      0.1885300       0.4291000
C2        0.4495700      0.3157500      0.1562500      -0.0839000
H2        0.4294500      0.3111500      0.1383000       0.1128000
C3        0.0427500      0.2969500      0.2030500      -0.4526000
N1        0.4841600      0.2951300      0.1586100      -0.3879000
Zn        0.0000000      0.2500000      0.1250000       0.6918000
C1        0.3114800      0.4960500      0.3114800       0.4291000
C2        0.3157500      0.0504300      0.3437500      -0.0839000
H2        0.3111500      0.0705500      0.3617000       0.1128000
C3        0.2969500      0.4572500      0.2969500      -0.4526000
H3        0.2706500      0.4601000      0.2871500       0.1318667
H3        0.2971000      0.4386000      0.3182000       0.1318667
H3        0.3138000      0.4480500      0.2762500       0.1318667
N1        0.2951300      0.0158400      0.3413900      -0.3879000
C1        0.4960500      0.1885300      0.1885300       0.4291000
C2        0.0504300      0.1842600      0.1562500      -0.0839000
H2        0.0705500      0.1888500      0.1383000       0.1128000
C3        0.4572500      0.2030500      0.2030500      -0.4526000
H3        0.4601000      0.2293500      0.2128500       0.1318667
H3        0.4386000      0.2029000      0.1818000       0.1318667
H3        0.4480500      0.1862000      0.2237500       0.1318667
N1        0.0158400      0.2048700      0.1586100      -0.3879000
C1        0.1885300      0.4960500      0.1885300       0.4291000
C2        0.1842600      0.0504300      0.1562500      -0.0839000
H2        0.1888500      0.0705500      0.1383000       0.1128000
C3        0.2030500      0.4572500      0.2030500      -0.4526000
N1        0.2048700      0.0158400      0.1586100      -0.3879000
Zn        0.2500000      0.0000000      0.1250000       0.6918000
C1        0.4960500      0.3114800      0.3114800       0.4291000
C2        0.0504300      0.3157500      0.3437500      -0.0839000
H2        0.0705500      0.3111500      0.3617000       0.1128000
C3        0.4572500      0.2969500      0.2969500      -0.4526000
N1        0.0158400      0.2951300      0.3413900      -0.3879000
Zn        0.0000000      0.2500000      0.3750000       0.6918000
C1        0.3114800      0.0039500      0.1885300       0.4291000
C2        0.3157500      0.4495700      0.1562500      -0.0839000
H2        0.3111500      0.4294500      0.1383000       0.1128000
C3        0.2969500      0.0427500      0.2030500      -0.4526000
H3        0.2706500      0.0399000      0.2128500       0.1318667
H3        0.2971000      0.0614000      0.1818000       0.1318667
H3        0.3138000      0.0519500      0.2237500       0.1318667
N1        0.2951300      0.4841600      0.1586100      -0.3879000
C1        0.0039500      0.1885300      0.3114800       0.4291000
C2        0.4495700      0.1842600      0.3437500      -0.0839000
H2        0.4294500      0.1888500      0.3617000       0.1128000
C3        0.0427500      0.2030500      0.2969500      -0.4526000
H3        0.0399000      0.2293500      0.2871500       0.1318667
H3        0.0614000      0.2029000      0.3182000       0.1318667
H3        0.0519500      0.1862000      0.2762500       0.1318667
N1        0.4841600      0.2048700      0.3413900      -0.3879000
C1        0.3114800      0.1885300      0.0039500       0.4291000
C2        0.3437500      0.1842600      0.4495700      -0.0839000
H2        0.3617000      0.1888500      0.4294500       0.1128000
C3        0.2969500      0.2030500      0.0427500      -0.4526000
N1        0.3413900      0.2048700      0.4841600      -0.3879000
Zn        0.3750000      0.2500000      0.0000000       0.6918000
C1        0.1885300      0.1885300      0.4960500       0.4291000
C2        0.1842600      0.1562500      0.0504300      -0.0839000
H2        0.1888500      0.1383000      0.0705500       0.1128000
C3        0.2030500      0.2030500      0.4572500      -0.4526000
H3        0.2293500      0.2128500      0.4601000       0.1318667
H3        0.2029000      0.1818000      0.4386000       0.1318667
H3        0.1862000      0.2237500      0.4480500       0.1318667
N1        0.2048700      0.1586100      0.0158400      -0.3879000
Zn        0.2500000      0.1250000      0.0000000       0.6918000
C1        0.1885300      0.3114800      0.0039500       0.4291000
C2        0.1562500      0.3157500      0.4495700      -0.0839000
H2        0.1383000      0.3111500      0.4294500       0.1128000
C3        0.2030500      0.2969500      0.0427500      -0.4526000
N1        0.1586100      0.2951300      0.4841600      -0.3879000
Zn        0.1250000      0.2500000      0.0000000       0.6918000
C1        0.3114800      0.3114800      0.4960500       0.4291000
C2        0.3157500      0.3437500      0.0504300      -0.0839000
H2        0.3111500      0.3617000      0.0705500       0.1128000
C3        0.2969500      0.2969500      0.4572500      -0.4526000
H3        0.2706500      0.2871500      0.4601000       0.1318667
H3        0.2971000      0.3182000      0.4386000       0.1318667
H3        0.3138000      0.2762500      0.4480500       0.1318667
N1        0.2951300      0.3413900      0.0158400      -0.3879000
Zn        0.2500000      0.3750000      0.0000000       0.6918000
C2        0.3437500      0.3157500      0.0504300      -0.0839000
H2        0.3617000      0.3111500      0.0705500       0.1128000
N1        0.3413900      0.2951300      0.0158400      -0.3879000
C2        0.3157500      0.1562500      0.4495700      -0.0839000
H2        0.3111500      0.1383000      0.4294500       0.1128000
H3        0.2706500      0.2128500      0.0399000       0.1318667
H3        0.2971000      0.1818000      0.0614000       0.1318667
H3        0.3138000      0.2237500      0.0519500       0.1318667
N1        0.2951300      0.1586100      0.4841600      -0.3879000
C2        0.1562500      0.1842600      0.0504300      -0.0839000
H2        0.1383000      0.1888500      0.0705500       0.1128000
N1        0.1586100      0.2048700      0.0158400      -0.3879000
C2        0.1842600      0.3437500      0.4495700      -0.0839000
H2        0.1888500      0.3617000      0.4294500       0.1128000
H3        0.2293500      0.2871500      0.0399000       0.1318667
H3        0.2029000      0.3182000      0.0614000       0.1318667
H3        0.1862000      0.2762500      0.0519500       0.1318667
N1        0.2048700      0.3413900      0.4841600      -0.3879000
C2        0.4495700      0.3437500      0.1842600      -0.0839000
H2        0.4294500      0.3617000      0.1888500       0.1128000
H3        0.0399000      0.2871500      0.2293500       0.1318667
H3        0.0614000      0.3182000      0.2029000       0.1318667
H3        0.0519500      0.2762500      0.1862000       0.1318667
N1        0.4841600      0.3413900      0.2048700      -0.3879000
Zn        0.0000000      0.3750000      0.2500000       0.6918000
C2        0.4495700      0.1562500      0.3157500      -0.0839000
H2        0.4294500      0.1383000      0.3111500       0.1128000
N1        0.4841600      0.1586100      0.2951300      -0.3879000
Zn        0.0000000      0.1250000      0.2500000       0.6918000
C2        0.1562500      0.0504300      0.1842600      -0.0839000
H2        0.1383000      0.0705500      0.1888500       0.1128000
H3        0.2128500      0.4601000      0.2293500       0.1318667
H3        0.1818000      0.4386000      0.2029000       0.1318667
H3        0.2237500      0.4480500      0.1862000       0.1318667
N1        0.1586100      0.0158400      0.2048700      -0.3879000
Zn        0.1250000      0.0000000      0.2500000       0.6918000
C2        0.0504300      0.3437500      0.3157500      -0.0839000
H2        0.0705500      0.3617000      0.3111500       0.1128000
H3        0.4601000      0.2871500      0.2706500       0.1318667
H3        0.4386000      0.3182000      0.2971000       0.1318667
H3        0.4480500      0.2762500      0.3138000       0.1318667
N1        0.0158400      0.3413900      0.2951300      -0.3879000
C2        0.3437500      0.4495700      0.1842600      -0.0839000
H2        0.3617000      0.4294500      0.1888500       0.1128000
N1        0.3413900      0.4841600      0.2048700      -0.3879000
Zn        0.3750000      0.0000000      0.2500000       0.6918000
C2        0.0504300      0.1562500      0.1842600      -0.0839000
H2        0.0705500      0.1383000      0.1888500       0.1128000
N1        0.0158400      0.1586100      0.2048700      -0.3879000
C2        0.1562500      0.4495700      0.3157500      -0.0839000
H2        0.1383000      0.4294500      0.3111500       0.1128000
H3        0.2128500      0.0399000      0.2706500       0.1318667
H3        0.1818000      0.0614000      0.2971000       0.1318667
H3        0.2237500      0.0519500      0.3138000       0.1318667
N1        0.1586100      0.4841600      0.2951300      -0.3879000
C2        0.3437500      0.0504300      0.3157500      -0.0839000
H2        0.3617000      0.0705500      0.3111500       0.1128000
N1        0.3413900      0.0158400      0.2951300      -0.3879000
C1        0.4385300      0.2539500      0.0614700       0.4291000
C2        0.4342500      0.1995700      0.0937500      -0.0839000
H2        0.4388500      0.1794500      0.1117000       0.1128000
C3        0.4530500      0.2927500      0.0469500      -0.4526000
H3        0.4793500      0.2899000      0.0371500       0.1318667
H3        0.4529000      0.3114000      0.0682000       0.1318667
H3        0.4362000      0.3019500      0.0262500       0.1318667
N1        0.4548600      0.2341600      0.0913900      -0.3879000
C1        0.2539500      0.0614700      0.4385300       0.4291000
C2        0.1995700      0.0657500      0.4062500      -0.0839000
H2        0.1794500      0.0611500      0.3883000       0.1128000
C3        0.2927500      0.0469500      0.4530500      -0.4526000
N1        0.2341600      0.0451400      0.4086100      -0.3879000
C1        0.0614700      0.2460500      0.0614700       0.4291000
C2        0.0657500      0.3004300      0.0937500      -0.0839000
H2        0.0611500      0.3205500      0.1117000       0.1128000
C3        0.0469500      0.2072500      0.0469500      -0.4526000
H3        0.0206500      0.2101000      0.0371500       0.1318667
H3        0.0471000      0.1886000      0.0682000       0.1318667
H3        0.0638000      0.1980500      0.0262500       0.1318667
N1        0.0451400      0.2658400      0.0913900      -0.3879000
C1        0.2460500      0.4385300      0.4385300       0.4291000
C2        0.3004300      0.4342500      0.4062500      -0.0839000
H2        0.3205500      0.4388500      0.3883000       0.1128000
C3        0.2072500      0.4530500      0.4530500      -0.4526000
H3        0.2101000      0.4793500      0.4628500       0.1318667
H3        0.1886000      0.4529000      0.4318000       0.1318667
H3        0.1980500      0.4362000      0.4737500       0.1318667
N1        0.2658400      0.4548600      0.4086100      -0.3879000
C1        0.4385300      0.2460500      0.4385300       0.4291000
C2        0.4342500      0.3004300      0.4062500      -0.0839000
H2        0.4388500      0.3205500      0.3883000       0.1128000
C3        0.4530500      0.2072500      0.4530500      -0.4526000
H3        0.4793500      0.2101000      0.4628500       0.1318667
H3        0.4529000      0.1886000      0.4318000       0.1318667
H3        0.4362000      0.1980500      0.4737500       0.1318667
N1        0.4548600      0.2658400      0.4086100      -0.3879000
C1        0.2460500      0.0614700      0.0614700       0.4291000
C2        0.3004300      0.0657500      0.0937500      -0.0839000
H2        0.3205500      0.0611500      0.1117000       0.1128000
C3        0.2072500      0.0469500      0.0469500      -0.4526000
N1        0.2658400      0.0451400      0.0913900      -0.3879000
C1        0.0614700      0.2539500      0.4385300       0.4291000
C2        0.0657500      0.1995700      0.4062500      -0.0839000
H2        0.0611500      0.1794500      0.3883000       0.1128000
C3        0.0469500      0.2927500      0.4530500      -0.4526000
N1        0.0451400      0.2341600      0.4086100      -0.3879000
C1        0.2539500      0.4385300      0.0614700       0.4291000
C2        0.1995700      0.4342500      0.0937500      -0.0839000
H2        0.1794500      0.4388500      0.1117000       0.1128000
C3        0.2927500      0.4530500      0.0469500      -0.4526000
N1        0.2341600      0.4548600      0.0913900      -0.3879000
C1        0.0614700      0.4385300      0.2539500       0.4291000
C2        0.0937500      0.4342500      0.1995700      -0.0839000
H2        0.1117000      0.4388500      0.1794500       0.1128000
C3        0.0469500      0.4530500      0.2927500      -0.4526000
N1        0.0913900      0.4548600      0.2341600      -0.3879000
C1        0.4385300      0.4385300      0.2460500       0.4291000
C2        0.4342500      0.4062500      0.3004300      -0.0839000
H2        0.4388500      0.3883000      0.3205500       0.1128000
C3        0.4530500      0.4530500      0.2072500      -0.4526000
H3        0.4793500      0.4628500      0.2101000       0.1318667
H3        0.4529000      0.4318000      0.1886000       0.1318667
H3        0.4362000      0.4737500      0.1980500       0.1318667
N1        0.4548600      0.4086100      0.2658400      -0.3879000
C1        0.4385300      0.0614700      0.2539500       0.4291000
C2        0.4062500      0.0657500      0.1995700      -0.0839000
H2        0.3883000      0.0611500      0.1794500       0.1128000
C3        0.4530500      0.0469500      0.2927500      -0.4526000
N1        0.4086100      0.0451400      0.2341600      -0.3879000
C1        0.0614700      0.0614700      0.2460500       0.4291000
C2        0.0657500      0.0937500      0.3004300      -0.0839000
H2        0.0611500      0.1117000      0.3205500       0.1128000
C3        0.0469500      0.0469500      0.2072500      -0.4526000
H3        0.0206500      0.0371500      0.2101000       0.1318667
H3        0.0471000      0.0682000      0.1886000       0.1318667
H3        0.0638000      0.0262500      0.1980500       0.1318667
N1        0.0451400      0.0913900      0.2658400      -0.3879000
C2        0.0937500      0.0657500      0.3004300      -0.0839000
H2        0.1117000      0.0611500      0.3205500       0.1128000
N1        0.0913900      0.0451400      0.2658400      -0.3879000
C2        0.0657500      0.4062500      0.1995700      -0.0839000
H2        0.0611500      0.3883000      0.1794500       0.1128000
H3        0.0206500      0.4628500      0.2899000       0.1318667
H3        0.0471000      0.4318000      0.3114000       0.1318667
H3        0.0638000      0.4737500      0.3019500       0.1318667
N1        0.0451400      0.4086100      0.2341600      -0.3879000
C2        0.4062500      0.4342500      0.3004300      -0.0839000
H2        0.3883000      0.4388500      0.3205500       0.1128000
N1        0.4086100      0.4548600      0.2658400      -0.3879000
C2        0.4342500      0.0937500      0.1995700      -0.0839000
H2        0.4388500      0.1117000      0.1794500       0.1128000
H3        0.4793500      0.0371500      0.2899000       0.1318667
H3        0.4529000      0.0682000      0.3114000       0.1318667
H3        0.4362000      0.0262500      0.3019500       0.1318667
N1        0.4548600      0.0913900      0.2341600      -0.3879000
C2        0.1995700      0.0937500      0.4342500      -0.0839000
H2        0.1794500      0.1117000      0.4388500       0.1128000
H3        0.2899000      0.0371500      0.4793500       0.1318667
H3        0.3114000      0.0682000      0.4529000       0.1318667
H3        0.3019500      0.0262500      0.4362000       0.1318667
N1        0.2341600      0.0913900      0.4548600      -0.3879000
C2        0.1995700      0.4062500      0.0657500      -0.0839000
H2        0.1794500      0.3883000      0.0611500       0.1128000
H3        0.2899000      0.4628500      0.0206500       0.1318667
H3        0.3114000      0.4318000      0.0471000       0.1318667
H3        0.3019500      0.4737500      0.0638000       0.1318667
N1        0.2341600      0.4086100      0.0451400      -0.3879000
C2        0.4062500      0.3004300      0.4342500      -0.0839000
H2        0.3883000      0.3205500      0.4388500       0.1128000
N1        0.4086100      0.2658400      0.4548600      -0.3879000
C2        0.3004300      0.0937500      0.0657500      -0.0839000
H2        0.3205500      0.1117000      0.0611500       0.1128000
H3        0.2101000      0.0371500      0.0206500       0.1318667
H3        0.1886000      0.0682000      0.0471000       0.1318667
H3        0.1980500      0.0262500      0.0638000       0.1318667
N1        0.2658400      0.0913900      0.0451400      -0.3879000
C2        0.0937500      0.1995700      0.4342500      -0.0839000
H2        0.1117000      0.1794500      0.4388500       0.1128000
H3        0.0371500      0.2899000      0.4793500       0.1318667
H3        0.0682000      0.3114000      0.4529000       0.1318667
H3        0.0262500      0.3019500      0.4362000       0.1318667
N1        0.0913900      0.2341600      0.4548600      -0.3879000
C2        0.3004300      0.4062500      0.4342500      -0.0839000
H2        0.3205500      0.3883000      0.4388500       0.1128000
N1        0.2658400      0.4086100      0.4548600      -0.3879000
C2        0.4062500      0.1995700      0.0657500      -0.0839000
H2        0.3883000      0.1794500      0.0611500       0.1128000
N1        0.4086100      0.2341600      0.0451400      -0.3879000
C2        0.0937500      0.3004300      0.0657500      -0.0839000
H2        0.1117000      0.3205500      0.0611500       0.1128000
N1        0.0913900      0.2658400      0.0451400      -0.3879000
C1        0.6885300      0.0039500      0.3114800       0.4291000
C2        0.6842600      0.4495700      0.3437500      -0.0839000
H2        0.6888500      0.4294500      0.3617000       0.1128000
C3        0.7030500      0.0427500      0.2969500      -0.4526000
N1        0.7048700      0.4841600      0.3413900      -0.3879000
Zn        0.7500000      0.0000000      0.3750000       0.6918000
C1        0.5039500      0.3114800      0.1885300       0.4291000
C2        0.9495700      0.3157500      0.1562500      -0.0839000
H2        0.9294500      0.3111500      0.1383000       0.1128000
C3        0.5427500      0.2969500      0.2030500      -0.4526000
N1        0.9841600      0.2951300      0.1586100      -0.3879000
Zn        0.5000000      0.2500000      0.1250000       0.6918000
C1        0.8114800      0.4960500      0.3114800       0.4291000
C2        0.8157500      0.0504300      0.3437500      -0.0839000
H2        0.8111500      0.0705500      0.3617000       0.1128000
C3        0.7969500      0.4572500      0.2969500      -0.4526000
H3        0.7706500      0.4601000      0.2871500       0.1318667
H3        0.7971000      0.4386000      0.3182000       0.1318667
H3        0.8138000      0.4480500      0.2762500       0.1318667
N1        0.7951300      0.0158400      0.3413900      -0.3879000
C1        0.9960500      0.1885300      0.1885300       0.4291000
C2        0.5504300      0.1842600      0.1562500      -0.0839000
H2        0.5705500      0.1888500      0.1383000       0.1128000
C3        0.9572500      0.2030500      0.2030500      -0.4526000
H3        0.9601000      0.2293500      0.2128500       0.1318667
H3        0.9386000      0.2029000      0.1818000       0.1318667
H3        0.9480500      0.1862000      0.2237500       0.1318667
N1        0.5158400      0.2048700      0.1586100      -0.3879000
C1        0.6885300      0.4960500      0.1885300       0.4291000
C2        0.6842600      0.0504300      0.1562500      -0.0839000
H2        0.6888500      0.0705500      0.1383000       0.1128000
C3        0.7030500      0.4572500      0.2030500      -0.4526000
N1        0.7048700      0.0158400      0.1586100      -0.3879000
Zn        0.7500000      0.0000000      0.1250000       0.6918000
C1        0.9960500      0.3114800      0.3114800       0.4291000
C2        0.5504300      0.3157500      0.3437500      -0.0839000
H2        0.5705500      0.3111500      0.3617000       0.1128000
C3        0.9572500      0.2969500      0.2969500      -0.4526000
N1        0.5158400      0.2951300      0.3413900      -0.3879000
Zn        0.5000000      0.2500000      0.3750000       0.6918000
C1        0.8114800      0.0039500      0.1885300       0.4291000
C2        0.8157500      0.4495700      0.1562500      -0.0839000
H2        0.8111500      0.4294500      0.1383000       0.1128000
C3        0.7969500      0.0427500      0.2030500      -0.4526000
H3        0.7706500      0.0399000      0.2128500       0.1318667
H3        0.7971000      0.0614000      0.1818000       0.1318667
H3        0.8138000      0.0519500      0.2237500       0.1318667
N1        0.7951300      0.4841600      0.1586100      -0.3879000
C1        0.5039500      0.1885300      0.3114800       0.4291000
C2        0.9495700      0.1842600      0.3437500      -0.0839000
H2        0.9294500      0.1888500      0.3617000       0.1128000
C3        0.5427500      0.2030500      0.2969500      -0.4526000
H3        0.5399000      0.2293500      0.2871500       0.1318667
H3        0.5614000      0.2029000      0.3182000       0.1318667
H3        0.5519500      0.1862000      0.2762500       0.1318667
N1        0.9841600      0.2048700      0.3413900      -0.3879000
C1        0.8114800      0.1885300      0.0039500       0.4291000
C2        0.8437500      0.1842600      0.4495700      -0.0839000
H2        0.8617000      0.1888500      0.4294500       0.1128000
C3        0.7969500      0.2030500      0.0427500      -0.4526000
N1        0.8413900      0.2048700      0.4841600      -0.3879000
Zn        0.8750000      0.2500000      0.0000000       0.6918000
C1        0.6885300      0.1885300      0.4960500       0.4291000
C2        0.6842600      0.1562500      0.0504300      -0.0839000
H2        0.6888500      0.1383000      0.0705500       0.1128000
C3        0.7030500      0.2030500      0.4572500      -0.4526000
H3        0.7293500      0.2128500      0.4601000       0.1318667
H3        0.7029000      0.1818000      0.4386000       0.1318667
H3        0.6862000      0.2237500      0.4480500       0.1318667
N1        0.7048700      0.1586100      0.0158400      -0.3879000
Zn        0.7500000      0.1250000      0.0000000       0.6918000
C1        0.6885300      0.3114800      0.0039500       0.4291000
C2        0.6562500      0.3157500      0.4495700      -0.0839000
H2        0.6383000      0.3111500      0.4294500       0.1128000
C3        0.7030500      0.2969500      0.0427500      -0.4526000
N1        0.6586100      0.2951300      0.4841600      -0.3879000
Zn        0.6250000      0.2500000      0.0000000       0.6918000
C1        0.8114800      0.3114800      0.4960500       0.4291000
C2        0.8157500      0.3437500      0.0504300      -0.0839000
H2        0.8111500      0.3617000      0.0705500       0.1128000
C3        0.7969500      0.2969500      0.4572500      -0.4526000
H3        0.7706500      0.2871500      0.4601000       0.1318667
H3        0.7971000      0.3182000      0.4386000       0.1318667
H3        0.8138000      0.2762500      0.4480500       0.1318667
N1        0.7951300      0.3413900      0.0158400      -0.3879000
Zn        0.7500000      0.3750000      0.0000000       0.6918000
C2        0.8437500      0.3157500      0.0504300      -0.0839000
H2        0.8617000      0.3111500      0.0705500       0.1128000
N1        0.8413900      0.2951300      0.0158400      -0.3879000
C2        0.8157500      0.1562500      0.4495700      -0.0839000
H2        0.8111500      0.1383000      0.4294500       0.1128000
H3        0.7706500      0.2128500      0.0399000       0.1318667
H3        0.7971000      0.1818000      0.0614000       0.1318667
H3        0.8138000      0.2237500      0.0519500       0.1318667
N1        0.7951300      0.1586100      0.4841600      -0.3879000
C2        0.6562500      0.1842600      0.0504300      -0.0839000
H2        0.6383000      0.1888500      0.0705500       0.1128000
N1        0.6586100      0.2048700      0.0158400      -0.3879000
C2        0.6842600      0.3437500      0.4495700      -0.0839000
H2        0.6888500      0.3617000      0.4294500       0.1128000
H3        0.7293500      0.2871500      0.0399000       0.1318667
H3        0.7029000      0.3182000      0.0614000       0.1318667
H3        0.6862000      0.2762500      0.0519500       0.1318667
N1        0.7048700      0.3413900      0.4841600      -0.3879000
C2        0.9495700      0.3437500      0.1842600      -0.0839000
H2        0.9294500      0.3617000      0.1888500       0.1128000
H3        0.5399000      0.2871500      0.2293500       0.1318667
H3        0.5614000      0.3182000      0.2029000       0.1318667
H3        0.5519500      0.2762500      0.1862000       0.1318667
N1        0.9841600      0.3413900      0.2048700      -0.3879000
Zn        0.5000000      0.3750000      0.2500000       0.6918000
C2        0.9495700      0.1562500      0.3157500      -0.0839000
H2        0.9294500      0.1383000      0.3111500       0.1128000
N1        0.9841600      0.1586100      0.2951300      -0.3879000
Zn        0.5000000      0.1250000      0.2500000       0.6918000
C2        0.6562500      0.0504300      0.1842600      -0.0839000
H2        0.6383000      0.0705500      0.1888500       0.1128000
H3        0.7128500      0.4601000      0.2293500       0.1318667
H3        0.6818000      0.4386000      0.2029000       0.1318667
H3        0.7237500      0.4480500      0.1862000       0.1318667
N1        0.6586100      0.0158400      0.2048700      -0.3879000
Zn        0.6250000      0.0000000      0.2500000       0.6918000
C2        0.5504300      0.3437500      0.3157500      -0.0839000
H2        0.5705500      0.3617000      0.3111500       0.1128000
H3        0.9601000      0.2871500      0.2706500       0.1318667
H3        0.9386000      0.3182000      0.2971000       0.1318667
H3        0.9480500      0.2762500      0.3138000       0.1318667
N1        0.5158400      0.3413900      0.2951300      -0.3879000
C2        0.8437500      0.4495700      0.1842600      -0.0839000
H2        0.8617000      0.4294500      0.1888500       0.1128000
N1        0.8413900      0.4841600      0.2048700      -0.3879000
Zn        0.8750000      0.0000000      0.2500000       0.6918000
C2        0.5504300      0.1562500      0.1842600      -0.0839000
H2        0.5705500      0.1383000      0.1888500       0.1128000
N1        0.5158400      0.1586100      0.2048700      -0.3879000
C2        0.6562500      0.4495700      0.3157500      -0.0839000
H2        0.6383000      0.4294500      0.3111500       0.1128000
H3        0.7128500      0.0399000      0.2706500       0.1318667
H3        0.6818000      0.0614000      0.2971000       0.1318667
H3        0.7237500      0.0519500      0.3138000       0.1318667
N1        0.6586100      0.4841600      0.2951300      -0.3879000
C2        0.8437500      0.0504300      0.3157500      -0.0839000
H2        0.8617000      0.0705500      0.3111500       0.1128000
N1        0.8413900      0.0158400      0.2951300      -0.3879000
C1        0.9385300      0.2539500      0.0614700       0.4291000
C2        0.9342500      0.1995700      0.0937500      -0.0839000
H2        0.9388500      0.1794500      0.1117000       0.1128000
C3        0.9530500      0.2927500      0.0469500      -0.4526000
H3        0.9793500      0.2899000      0.0371500       0.1318667
H3        0.9529000      0.3114000      0.0682000       0.1318667
H3        0.9362000      0.3019500      0.0262500       0.1318667
N1        0.9548700      0.2341600      0.0913900      -0.3879000
C1        0.7539500      0.0614700      0.4385300       0.4291000
C2        0.6995700      0.0657500      0.4062500      -0.0839000
H2        0.6794500      0.0611500      0.3883000       0.1128000
C3        0.7927500      0.0469500      0.4530500      -0.4526000
N1        0.7341600      0.0451400      0.4086100      -0.3879000
C1        0.5614700      0.2460500      0.0614700       0.4291000
C2        0.5657500      0.3004300      0.0937500      -0.0839000
H2        0.5611500      0.3205500      0.1117000       0.1128000
C3        0.5469500      0.2072500      0.0469500      -0.4526000
H3        0.5206500      0.2101000      0.0371500       0.1318667
H3        0.5471000      0.1886000      0.0682000       0.1318667
H3        0.5638000      0.1980500      0.0262500       0.1318667
N1        0.5451400      0.2658400      0.0913900      -0.3879000
C1        0.7460500      0.4385300      0.4385300       0.4291000
C2        0.8004300      0.4342500      0.4062500      -0.0839000
H2        0.8205500      0.4388500      0.3883000       0.1128000
C3        0.7072500      0.4530500      0.4530500      -0.4526000
H3        0.7101000      0.4793500      0.4628500       0.1318667
H3        0.6886000      0.4529000      0.4318000       0.1318667
H3        0.6980500      0.4362000      0.4737500       0.1318667
N1        0.7658400      0.4548600      0.4086100      -0.3879000
C1        0.9385300      0.2460500      0.4385300       0.4291000
C2        0.9342500      0.3004300      0.4062500      -0.0839000
H2        0.9388500      0.3205500      0.3883000       0.1128000
C3        0.9530500      0.2072500      0.4530500      -0.4526000
H3        0.9793500      0.2101000      0.4628500       0.1318667
H3        0.9529000      0.1886000      0.4318000       0.1318667
H3        0.9362000      0.1980500      0.4737500       0.1318667
N1        0.9548700      0.2658400      0.4086100      -0.3879000
C1        0.7460500      0.0614700      0.0614700       0.4291000
C2        0.8004300      0.0657500      0.0937500      -0.0839000
H2        0.8205500      0.0611500      0.1117000       0.1128000
C3        0.7072500      0.0469500      0.0469500      -0.4526000
N1        0.7658400      0.0451400      0.0913900      -0.3879000
C1        0.5614700      0.2539500      0.4385300       0.4291000
C2        0.5657500      0.1995700      0.4062500      -0.0839000
H2        0.5611500      0.1794500      0.3883000       0.1128000
C3        0.5469500      0.2927500      0.4530500      -0.4526000
N1        0.5451400      0.2341600      0.4086100      -0.3879000
C1        0.7539500      0.4385300      0.0614700       0.4291000
C2        0.6995700      0.4342500      0.0937500      -0.0839000
H2        0.6794500      0.4388500      0.1117000       0.1128000
C3        0.7927500      0.4530500      0.0469500      -0.4526000
N1        0.7341600      0.4548600      0.0913900      -0.3879000
C1        0.5614700      0.4385300      0.2539500       0.4291000
C2        0.5937500      0.4342500      0.1995700      -0.0839000
H2        0.6117000      0.4388500      0.1794500       0.1128000
C3        0.5469500      0.4530500      0.2927500      -0.4526000
N1        0.5913900      0.4548600      0.2341600      -0.3879000
C1        0.9385300      0.4385300      0.2460500       0.4291000
C2        0.9342500      0.4062500      0.3004300      -0.0839000
H2        0.9388500      0.3883000      0.3205500       0.1128000
C3        0.9530500      0.4530500      0.2072500      -0.4526000
H3        0.9793500      0.4628500      0.2101000       0.1318667
H3        0.9529000      0.4318000      0.1886000       0.1318667
H3        0.9362000      0.4737500      0.1980500       0.1318667
N1        0.9548700      0.4086100      0.2658400      -0.3879000
C1        0.9385300      0.0614700      0.2539500       0.4291000
C2        0.9062500      0.0657500      0.1995700      -0.0839000
H2        0.8883000      0.0611500      0.1794500       0.1128000
C3        0.9530500      0.0469500      0.2927500      -0.4526000
N1        0.9086100      0.0451400      0.2341600      -0.3879000
C1        0.5614700      0.0614700      0.2460500       0.4291000
C2        0.5657500      0.0937500      0.3004300      -0.0839000
H2        0.5611500      0.1117000      0.3205500       0.1128000
C3        0.5469500      0.0469500      0.2072500      -0.4526000
H3        0.5206500      0.0371500      0.2101000       0.1318667
H3        0.5471000      0.0682000      0.1886000       0.1318667
H3        0.5638000      0.0262500      0.1980500       0.1318667
N1        0.5451400      0.0913900      0.2658400      -0.3879000
C2        0.5937500      0.0657500      0.3004300      -0.0839000
H2        0.6117000      0.0611500      0.3205500       0.1128000
N1        0.5913900      0.0451400      0.2658400      -0.3879000
C2        0.5657500      0.4062500      0.1995700      -0.0839000
H2        0.5611500      0.3883000      0.1794500       0.1128000
H3        0.5206500      0.4628500      0.2899000       0.1318667
H3        0.5471000      0.4318000      0.3114000       0.1318667
H3        0.5638000      0.4737500      0.3019500       0.1318667
N1        0.5451400      0.4086100      0.2341600      -0.3879000
C2        0.9062500      0.4342500      0.3004300      -0.0839000
H2        0.8883000      0.4388500      0.3205500       0.1128000
N1        0.9086100      0.4548600      0.2658400      -0.3879000
C2        0.9342500      0.0937500      0.1995700      -0.0839000
H2        0.9388500      0.1117000      0.1794500       0.1128000
H3        0.9793500      0.0371500      0.2899000       0.1318667
H3        0.9529000      0.0682000      0.3114000       0.1318667
H3        0.9362000      0.0262500      0.3019500       0.1318667
N1        0.9548700      0.0913900      0.2341600      -0.3879000
C2        0.6995700      0.0937500      0.4342500      -0.0839000
H2        0.6794500      0.1117000      0.4388500       0.1128000
H3        0.7899000      0.0371500      0.4793500       0.1318667
H3        0.8114000      0.0682000      0.4529000       0.1318667
H3        0.8019500      0.0262500      0.4362000       0.1318667
N1        0.7341600      0.0913900      0.4548600      -0.3879000
C2        0.6995700      0.4062500      0.0657500      -0.0839000
H2        0.6794500      0.3883000      0.0611500       0.1128000
H3        0.7899000      0.4628500      0.0206500       0.1318667
H3        0.8114000      0.4318000      0.0471000       0.1318667
H3        0.8019500      0.4737500      0.0638000       0.1318667
N1        0.7341600      0.4086100      0.0451400      -0.3879000
C2        0.9062500      0.3004300      0.4342500      -0.0839000
H2        0.8883000      0.3205500      0.4388500       0.1128000
N1        0.9086100      0.2658400      0.4548600      -0.3879000
C2        0.8004300      0.0937500      0.0657500      -0.0839000
H2        0.8205500      0.1117000      0.0611500       0.1128000
H3        0.7101000      0.0371500      0.0206500       0.1318667
H3        0.6886000      0.0682000      0.0471000       0.1318667
H3        0.6980500      0.0262500      0.0638000       0.1318667
N1        0.7658400      0.0913900      0.0451400      -0.3879000
C2        0.5937500      0.1995700      0.4342500      -0.0839000
H2        0.6117000      0.1794500      0.4388500       0.1128000
H3        0.5371500      0.2899000      0.4793500       0.1318667
H3        0.5682000      0.3114000      0.4529000       0.1318667
H3        0.5262500      0.3019500      0.4362000       0.1318667
N1        0.5913900      0.2341600      0.4548600      -0.3879000
C2        0.8004300      0.4062500      0.4342500      -0.0839000
H2        0.8205500      0.3883000      0.4388500       0.1128000
N1        0.7658400      0.4086100      0.4548600      -0.3879000
C2        0.9062500      0.1995700      0.0657500      -0.0839000
H2        0.8883000      0.1794500      0.0611500       0.1128000
N1        0.9086100      0.2341600      0.0451400      -0.3879000
C2        0.5937500      0.3004300      0.0657500      -0.0839000
H2        0.6117000      0.3205500      0.0611500       0.1128000
N1        0.5913900      0.2658400      0.0451400      -0.3879000
C1        0.1885300      0.5039500      0.3114800       0.4291000
C2        0.1842600      0.9495700      0.3437500      -0.0839000
H2        0.1888500      0.9294500      0.3617000       0.1128000
C3        0.2030500      0.5427500      0.2969500      -0.4526000
N1        0.2048700      0.9841600      0.3413900      -0.3879000
Zn        0.2500000      0.5000000      0.3750000       0.6918000
C1        0.0039500      0.8114800      0.1885300       0.4291000
C2        0.4495700      0.8157500      0.1562500      -0.0839000
H2        0.4294500      0.8111500      0.1383000       0.1128000
C3        0.0427500      0.7969500      0.2030500      -0.4526000
N1        0.4841600      0.7951300      0.1586100      -0.3879000
Zn        0.0000000      0.7500000      0.1250000       0.6918000
C1        0.3114800      0.9960500      0.3114800       0.4291000
C2        0.3157500      0.5504300      0.3437500      -0.0839000
H2        0.3111500      0.5705500      0.3617000       0.1128000
C3        0.2969500      0.9572500      0.2969500      -0.4526000
H3        0.2706500      0.9601000      0.2871500       0.1318667
H3        0.2971000      0.9386000      0.3182000       0.1318667
H3        0.3138000      0.9480500      0.2762500       0.1318667
N1        0.2951300      0.5158400      0.3413900      -0.3879000
C1        0.4960500      0.6885300      0.1885300       0.4291000
C2        0.0504300      0.6842600      0.1562500      -0.0839000
H2        0.0705500      0.6888500      0.1383000       0.1128000
C3        0.4572500      0.7030500      0.2030500      -0.4526000
H3        0.4601000      0.7293500      0.2128500       0.1318667
H3        0.4386000      0.7029000      0.1818000       0.1318667
H3        0.4480500      0.6862000      0.2237500       0.1318667
N1        0.0158400      0.7048700      0.1586100      -0.3879000
C1        0.1885300      0.9960500      0.1885300       0.4291000
C2        0.1842600      0.5504300      0.1562500      -0.0839000
H2        0.1888500      0.5705500      0.1383000       0.1128000
C3        0.2030500      0.9572500      0.2030500      -0.4526000
N1        0.2048700      0.5158400      0.1586100      -0.3879000
Zn        0.2500000      0.5000000      0.1250000       0.6918000
C1        0.4960500      0.8114800      0.3114800       0.4291000
C2        0.0504300      0.8157500      0.3437500      -0.0839000
H2        0.0705500      0.8111500      0.3617000       0.1128000
C3        0.4572500      0.7969500      0.2969500      -0.4526000
N1        0.0158400      0.7951300      0.3413900      -0.3879000
Zn        0.0000000      0.7500000      0.3750000       0.6918000
C1        0.3114800      0.5039500      0.1885300       0.4291000
C2        0.3157500      0.9495700      0.1562500      -0.0839000
H2        0.3111500      0.9294500      0.1383000       0.1128000
C3        0.2969500      0.5427500      0.2030500      -0.4526000
H3        0.2706500      0.5399000      0.2128500       0.1318667
H3        0.2971000      0.5614000      0.1818000       0.1318667
H3        0.3138000      0.5519500      0.2237500       0.1318667
N1        0.2951300      0.9841600      0.1586100      -0.3879000
C1        0.0039500      0.6885300      0.3114800       0.4291000
C2        0.4495700      0.6842600      0.3437500      -0.0839000
H2        0.4294500      0.6888500      0.3617000       0.1128000
C3        0.0427500      0.7030500      0.2969500      -0.4526000
H3        0.0399000      0.7293500      0.2871500       0.1318667
H3        0.0614000      0.7029000      0.3182000       0.1318667
H3        0.0519500      0.6862000      0.2762500       0.1318667
N1        0.4841600      0.7048700      0.3413900      -0.3879000
C1        0.3114800      0.6885300      0.0039500       0.4291000
C2        0.3437500      0.6842600      0.4495700      -0.0839000
H2        0.3617000      0.6888500      0.4294500       0.1128000
C3        0.2969500      0.7030500      0.0427500      -0.4526000
N1        0.3413900      0.7048700      0.4841600      -0.3879000
Zn        0.3750000      0.7500000      0.0000000       0.6918000
C1        0.1885300      0.6885300      0.4960500       0.4291000
C2        0.1842600      0.6562500      0.0504300      -0.0839000
H2        0.1888500      0.6383000      0.0705500       0.1128000
C3        0.2030500      0.7030500      0.4572500      -0.4526000
H3        0.2293500      0.7128500      0.4601000       0.1318667
H3        0.2029000      0.6818000      0.4386000       0.1318667
H3        0.1862000      0.7237500      0.4480500       0.1318667
N1        0.2048700      0.6586100      0.0158400      -0.3879000
Zn        0.2500000      0.6250000      0.0000000       0.6918000
C1        0.1885300      0.8114800      0.0039500       0.4291000
C2        0.1562500      0.8157500      0.4495700      -0.0839000
H2        0.1383000      0.8111500      0.4294500       0.1128000
C3        0.2030500      0.7969500      0.0427500      -0.4526000
N1        0.1586100      0.7951300      0.4841600      -0.3879000
Zn        0.1250000      0.7500000      0.0000000       0.6918000
C1        0.3114800      0.8114800      0.4960500       0.4291000
C2        0.3157500      0.8437500      0.0504300      -0.0839000
H2        0.3111500      0.8617000      0.0705500       0.1128000
C3        0.2969500      0.7969500      0.4572500      -0.4526000
H3        0.2706500      0.7871500      0.4601000       0.1318667
H3        0.2971000      0.8182000      0.4386000       0.1318667
H3        0.3138000      0.7762500      0.4480500       0.1318667
N1        0.2951300      0.8413900      0.0158400      -0.3879000
Zn        0.2500000      0.8750000      0.0000000       0.6918000
C2        0.3437500      0.8157500      0.0504300      -0.0839000
H2        0.3617000      0.8111500      0.0705500       0.1128000
N1        0.3413900      0.7951300      0.0158400      -0.3879000
C2        0.3157500      0.6562500      0.4495700      -0.0839000
H2        0.3111500      0.6383000      0.4294500       0.1128000
H3        0.2706500      0.7128500      0.0399000       0.1318667
H3        0.2971000      0.6818000      0.0614000       0.1318667
H3        0.3138000      0.7237500      0.0519500       0.1318667
N1        0.2951300      0.6586100      0.4841600      -0.3879000
C2        0.1562500      0.6842600      0.0504300      -0.0839000
H2        0.1383000      0.6888500      0.0705500       0.1128000
N1        0.1586100      0.7048700      0.0158400      -0.3879000
C2        0.1842600      0.8437500      0.4495700      -0.0839000
H2        0.1888500      0.8617000      0.4294500       0.1128000
H3        0.2293500      0.7871500      0.0399000       0.1318667
H3        0.2029000      0.8182000      0.0614000       0.1318667
H3        0.1862000      0.7762500      0.0519500       0.1318667
N1        0.2048700      0.8413900      0.4841600      -0.3879000
C2        0.4495700      0.8437500      0.1842600      -0.0839000
H2        0.4294500      0.8617000      0.1888500       0.1128000
H3        0.0399000      0.7871500      0.2293500       0.1318667
H3        0.0614000      0.8182000      0.2029000       0.1318667
H3        0.0519500      0.7762500      0.1862000       0.1318667
N1        0.4841600      0.8413900      0.2048700      -0.3879000
Zn        0.0000000      0.8750000      0.2500000       0.6918000
C2        0.4495700      0.6562500      0.3157500      -0.0839000
H2        0.4294500      0.6383000      0.3111500       0.1128000
N1        0.4841600      0.6586100      0.2951300      -0.3879000
Zn        0.0000000      0.6250000      0.2500000       0.6918000
C2        0.1562500      0.5504300      0.1842600      -0.0839000
H2        0.1383000      0.5705500      0.1888500       0.1128000
H3        0.2128500      0.9601000      0.2293500       0.1318667
H3        0.1818000      0.9386000      0.2029000       0.1318667
H3        0.2237500      0.9480500      0.1862000       0.1318667
N1        0.1586100      0.5158400      0.2048700      -0.3879000
Zn        0.1250000      0.5000000      0.2500000       0.6918000
C2        0.0504300      0.8437500      0.3157500      -0.0839000
H2        0.0705500      0.8617000      0.3111500       0.1128000
H3        0.4601000      0.7871500      0.2706500       0.1318667
H3        0.4386000      0.8182000      0.2971000       0.1318667
H3        0.4480500      0.7762500      0.3138000       0.1318667
N1        0.0158400      0.8413900      0.2951300      -0.3879000
C2        0.3437500      0.9495700      0.1842600      -0.0839000
H2        0.3617000      0.9294500      0.1888500       0.1128000
N1        0.3413900      0.9841600      0.2048700      -0.3879000
Zn        0.3750000      0.5000000      0.2500000       0.6918000
C2        0.0504300      0.6562500      0.1842600      -0.0839000
H2        0.0705500      0.6383000      0.1888500       0.1128000
N1        0.0158400      0.6586100      0.2048700      -0.3879000
C2        0.1562500      0.9495700      0.3157500      -0.0839000
H2        0.1383000      0.9294500      0.3111500       0.1128000
H3        0.2128500      0.5399000      0.2706500       0.1318667
H3        0.1818000      0.5614000      0.2971000       0.1318667
H3        0.2237500      0.5519500      0.3138000       0.1318667
N1        0.1586100      0.9841600      0.2951300      -0.3879000
C2        0.3437500      0.5504300      0.3157500      -0.0839000
H2        0.3617000      0.5705500      0.3111500       0.1128000
N1        0.3413900      0.5158400      0.2951300      -0.3879000
C1        0.4385300      0.7539500      0.0614700       0.4291000
C2        0.4342500      0.6995700      0.0937500      -0.0839000
H2        0.4388500      0.6794500      0.1117000       0.1128000
C3        0.4530500      0.7927500      0.0469500      -0.4526000
H3        0.4793500      0.7899000      0.0371500       0.1318667
H3        0.4529000      0.8114000      0.0682000       0.1318667
H3        0.4362000      0.8019500      0.0262500       0.1318667
N1        0.4548600      0.7341600      0.0913900      -0.3879000
C1        0.2539500      0.5614700      0.4385300       0.4291000
C2        0.1995700      0.5657500      0.4062500      -0.0839000
H2        0.1794500      0.5611500      0.3883000       0.1128000
C3        0.2927500      0.5469500      0.4530500      -0.4526000
N1        0.2341600      0.5451400      0.4086100      -0.3879000
C1        0.0614700      0.7460500      0.0614700       0.4291000
C2        0.0657500      0.8004300      0.0937500      -0.0839000
H2        0.0611500      0.8205500      0.1117000       0.1128000
C3        0.0469500      0.7072500      0.0469500      -0.4526000
H3        0.0206500      0.7101000      0.0371500       0.1318667
H3        0.0471000      0.6886000      0.0682000       0.1318667
H3        0.0638000      0.6980500      0.0262500       0.1318667
N1        0.0451400      0.7658400      0.0913900      -0.3879000
C1        0.2460500      0.9385300      0.4385300       0.4291000
C2        0.3004300      0.9342500      0.4062500      -0.0839000
H2        0.3205500      0.9388500      0.3883000       0.1128000
C3        0.2072500      0.9530500      0.4530500      -0.4526000
H3        0.2101000      0.9793500      0.4628500       0.1318667
H3        0.1886000      0.9529000      0.4318000       0.1318667
H3        0.1980500      0.9362000      0.4737500       0.1318667
N1        0.2658400      0.9548700      0.4086100      -0.3879000
C1        0.4385300      0.7460500      0.4385300       0.4291000
C2        0.4342500      0.8004300      0.4062500      -0.0839000
H2        0.4388500      0.8205500      0.3883000       0.1128000
C3        0.4530500      0.7072500      0.4530500      -0.4526000
H3        0.4793500      0.7101000      0.4628500       0.1318667
H3        0.4529000      0.6886000      0.4318000       0.1318667
H3        0.4362000      0.6980500      0.4737500       0.1318667
N1        0.4548600      0.7658400      0.4086100      -0.3879000
C1        0.2460500      0.5614700      0.0614700       0.4291000
C2        0.3004300      0.5657500      0.0937500      -0.0839000
H2        0.3205500      0.5611500      0.1117000       0.1128000
C3        0.2072500      0.5469500      0.0469500      -0.4526000
N1        0.2658400      0.5451400      0.0913900      -0.3879000
C1        0.0614700      0.7539500      0.4385300       0.4291000
C2        0.0657500      0.6995700      0.4062500      -0.0839000
H2        0.0611500      0.6794500      0.3883000       0.1128000
C3        0.0469500      0.7927500      0.4530500      -0.4526000
N1        0.0451400      0.7341600      0.4086100      -0.3879000
C1        0.2539500      0.9385300      0.0614700       0.4291000
C2        0.1995700      0.9342500      0.0937500      -0.0839000
H2        0.1794500      0.9388500      0.1117000       0.1128000
C3        0.2927500      0.9530500      0.0469500      -0.4526000
N1        0.2341600      0.9548700      0.0913900      -0.3879000
C1        0.0614700      0.9385300      0.2539500       0.4291000
C2        0.0937500      0.9342500      0.1995700      -0.0839000
H2        0.1117000      0.9388500      0.1794500       0.1128000
C3        0.0469500      0.9530500      0.2927500      -0.4526000
N1        0.0913900      0.9548700      0.2341600      -0.3879000
C1        0.4385300      0.9385300      0.2460500       0.4291000
C2        0.4342500      0.9062500      0.3004300      -0.0839000
H2        0.4388500      0.8883000      0.3205500       0.1128000
C3        0.4530500      0.9530500      0.2072500      -0.4526000
H3        0.4793500      0.9628500      0.2101000       0.1318667
H3        0.4529000      0.9318000      0.1886000       0.1318667
H3        0.4362000      0.9737500      0.1980500       0.1318667
N1        0.4548600      0.9086100      0.2658400      -0.3879000
C1        0.4385300      0.5614700      0.2539500       0.4291000
C2        0.4062500      0.5657500      0.1995700      -0.0839000
H2        0.3883000      0.5611500      0.1794500       0.1128000
C3        0.4530500      0.5469500      0.2927500      -0.4526000
N1        0.4086100      0.5451400      0.2341600      -0.3879000
C1        0.0614700      0.5614700      0.2460500       0.4291000
C2        0.0657500      0.5937500      0.3004300      -0.0839000
H2        0.0611500      0.6117000      0.3205500       0.1128000
C3        0.0469500      0.5469500      0.2072500      -0.4526000
H3        0.0206500      0.5371500      0.2101000       0.1318667
H3        0.0471000      0.5682000      0.1886000       0.1318667
H3        0.0638000      0.5262500      0.1980500       0.1318667
N1        0.0451400      0.5913900      0.2658400      -0.3879000
C2        0.0937500      0.5657500      0.3004300      -0.0839000
H2        0.1117000      0.5611500      0.3205500       0.1128000
N1        0.0913900      0.5451400      0.2658400      -0.3879000
C2        0.0657500      0.9062500      0.1995700      -0.0839000
H2        0.0611500      0.8883000      0.1794500       0.1128000
H3        0.0206500      0.9628500      0.2899000       0.1318667
H3        0.0471000      0.9318000      0.3114000       0.1318667
H3        0.0638000      0.9737500      0.3019500       0.1318667
N1        0.0451400      0.9086100      0.2341600      -0.3879000
C2        0.4062500      0.9342500      0.3004300      -0.0839000
H2        0.3883000      0.9388500      0.3205500       0.1128000
N1        0.4086100      0.9548700      0.2658400      -0.3879000
C2        0.4342500      0.5937500      0.1995700      -0.0839000
H2        0.4388500      0.6117000      0.1794500       0.1128000
H3        0.4793500      0.5371500      0.2899000       0.1318667
H3        0.4529000      0.5682000      0.3114000       0.1318667
H3        0.4362000      0.5262500      0.3019500       0.1318667
N1        0.4548600      0.5913900      0.2341600      -0.3879000
C2        0.1995700      0.5937500      0.4342500      -0.0839000
H2        0.1794500      0.6117000      0.4388500       0.1128000
H3        0.2899000      0.5371500      0.4793500       0.1318667
H3        0.3114000      0.5682000      0.4529000       0.1318667
H3        0.3019500      0.5262500      0.4362000       0.1318667
N1        0.2341600      0.5913900      0.4548600      -0.3879000
C2        0.1995700      0.9062500      0.0657500      -0.0839000
H2        0.1794500      0.8883000      0.0611500       0.1128000
H3        0.2899000      0.9628500      0.0206500       0.1318667
H3        0.3114000      0.9318000      0.0471000       0.1318667
H3        0.3019500      0.9737500      0.0638000       0.1318667
N1        0.2341600      0.9086100      0.0451400      -0.3879000
C2        0.4062500      0.8004300      0.4342500      -0.0839000
H2        0.3883000      0.8205500      0.4388500       0.1128000
N1        0.4086100      0.7658400      0.4548600      -0.3879000
C2        0.3004300      0.5937500      0.0657500      -0.0839000
H2        0.3205500      0.6117000      0.0611500       0.1128000
H3        0.2101000      0.5371500      0.0206500       0.1318667
H3        0.1886000      0.5682000      0.0471000       0.1318667
H3        0.1980500      0.5262500      0.0638000       0.1318667
N1        0.2658400      0.5913900      0.0451400      -0.3879000
C2        0.0937500      0.6995700      0.4342500      -0.0839000
H2        0.1117000      0.6794500      0.4388500       0.1128000
H3        0.0371500      0.7899000      0.4793500       0.1318667
H3        0.0682000      0.8114000      0.4529000       0.1318667
H3        0.0262500      0.8019500      0.4362000       0.1318667
N1        0.0913900      0.7341600      0.4548600      -0.3879000
C2        0.3004300      0.9062500      0.4342500      -0.0839000
H2        0.3205500      0.8883000      0.4388500       0.1128000
N1        0.2658400      0.9086100      0.4548600      -0.3879000
C2        0.4062500      0.6995700      0.0657500      -0.0839000
H2        0.3883000      0.6794500      0.0611500       0.1128000
N1        0.4086100      0.7341600      0.0451400      -0.3879000
C2        0.0937500      0.8004300      0.0657500      -0.0839000
H2        0.1117000      0.8205500      0.0611500       0.1128000
N1        0.0913900      0.7658400      0.0451400      -0.3879000
C1        0.6885300      0.5039500      0.3114800       0.4291000
C2        0.6842600      0.9495700      0.3437500      -0.0839000
H2        0.6888500      0.9294500      0.3617000       0.1128000
C3        0.7030500      0.5427500      0.2969500      -0.4526000
N1        0.7048700      0.9841600      0.3413900      -0.3879000
Zn        0.7500000      0.5000000      0.3750000       0.6918000
C1        0.5039500      0.8114800      0.1885300       0.4291000
C2        0.9495700      0.8157500      0.1562500      -0.0839000
H2        0.9294500      0.8111500      0.1383000       0.1128000
C3        0.5427500      0.7969500      0.2030500      -0.4526000
N1        0.9841600      0.7951300      0.1586100      -0.3879000
Zn        0.5000000      0.7500000      0.1250000       0.6918000
C1        0.8114800      0.9960500      0.3114800       0.4291000
C2        0.8157500      0.5504300      0.3437500      -0.0839000
H2        0.8111500      0.5705500      0.3617000       0.1128000
C3        0.7969500      0.9572500      0.2969500      -0.4526000
H3        0.7706500      0.9601000      0.2871500       0.1318667
H3        0.7971000      0.9386000      0.3182000       0.1318667
H3        0.8138000      0.9480500      0.2762500       0.1318667
N1        0.7951300      0.5158400      0.3413900      -0.3879000
C1        0.9960500      0.6885300      0.1885300       0.4291000
C2        0.5504300      0.6842600      0.1562500      -0.0839000
H2        0.5705500      0.6888500      0.1383000       0.1128000
C3        0.9572500      0.7030500      0.2030500      -0.4526000
H3        0.9601000      0.7293500      0.2128500       0.1318667
H3        0.9386000      0.7029000      0.1818000       0.1318667
H3        0.9480500      0.6862000      0.2237500       0.1318667
N1        0.5158400      0.7048700      0.1586100      -0.3879000
C1        0.6885300      0.9960500      0.1885300       0.4291000
C2        0.6842600      0.5504300      0.1562500      -0.0839000
H2        0.6888500      0.5705500      0.1383000       0.1128000
C3        0.7030500      0.9572500      0.2030500      -0.4526000
N1        0.7048700      0.5158400      0.1586100      -0.3879000
Zn        0.7500000      0.5000000      0.1250000       0.6918000
C1        0.9960500      0.8114800      0.3114800       0.4291000
C2        0.5504300      0.8157500      0.3437500      -0.0839000
H2        0.5705500      0.8111500      0.3617000       0.1128000
C3        0.9572500      0.7969500      0.2969500      -0.4526000
N1        0.5158400      0.7951300      0.3413900      -0.3879000
Zn        0.5000000      0.7500000      0.3750000       0.6918000
C1        0.8114800      0.5039500      0.1885300       0.4291000
C2        0.8157500      0.9495700      0.1562500      -0.0839000
H2        0.8111500      0.9294500      0.1383000       0.1128000
C3        0.7969500      0.5427500      0.2030500      -0.4526000
H3        0.7706500      0.5399000      0.2128500       0.1318667
H3        0.7971000      0.5614000      0.1818000       0.1318667
H3        0.8138000      0.5519500      0.2237500       0.1318667
N1        0.7951300      0.9841600      0.1586100      -0.3879000
C1        0.5039500      0.6885300      0.3114800       0.4291000
C2        0.9495700      0.6842600      0.3437500      -0.0839000
H2        0.9294500      0.6888500      0.3617000       0.1128000
C3        0.5427500      0.7030500      0.2969500      -0.4526000
H3        0.5399000      0.7293500      0.2871500       0.1318667
H3        0.5614000      0.7029000      0.3182000       0.1318667
H3        0.5519500      0.6862000      0.2762500       0.1318667
N1        0.9841600      0.7048700      0.3413900      -0.3879000
C1        0.8114800      0.6885300      0.0039500       0.4291000
C2        0.8437500      0.6842600      0.4495700      -0.0839000
H2        0.8617000      0.6888500      0.4294500       0.1128000
C3        0.7969500      0.7030500      0.0427500      -0.4526000
N1        0.8413900      0.7048700      0.4841600      -0.3879000
Zn        0.8750000      0.7500000      0.0000000       0.6918000
C1        0.6885300      0.6885300      0.4960500       0.4291000
C2        0.6842600      0.6562500      0.0504300      -0.0839000
H2        0.6888500      0.6383000      0.0705500       0.1128000
C3        0.7030500      0.7030500      0.4572500      -0.4526000
H3        0.7293500      0.7128500      0.4601000       0.1318667
H3        0.7029000      0.6818000      0.4386000       0.1318667
H3        0.6862000      0.7237500      0.4480500       0.1318667
N1        0.7048700      0.6586100      0.0158400      -0.3879000
Zn        0.7500000      0.6250000      0.0000000       0.6918000
C1        0.6885300      0.8114800      0.0039500       0.4291000
C2        0.6562500      0.8157500      0.4495700      -0.0839000
H2        0.6383000      0.8111500      0.4294500       0.1128000
C3        0.7030500      0.7969500      0.0427500      -0.4526000
N1        0.6586100      0.7951300      0.4841600      -0.3879000
Zn        0.6250000      0.7500000      0.0000000       0.6918000
C1        0.8114800      0.8114800      0.4960500       0.4291000
C2        0.8157500      0.8437500      0.0504300      -0.0839000
H2        0.8111500      0.8617000      0.0705500       0.1128000
C3        0.7969500      0.7969500      0.4572500      -0.4526000
H3        0.7706500      0.7871500      0.4601000       0.1318667
H3        0.7971000      0.8182000      0.4386000       0.1318667
H3        0.8138000      0.7762500      0.4480500       0.1318667
N1        0.7951300      0.8413900      0.0158400      -0.3879000
Zn        0.7500000      0.8750000      0.0000000       0.6918000
C2        0.8437500      0.8157500      0.0504300      -0.0839000
H2        0.8617000      0.8111500      0.0705500       0.1128000
N1        0.8413900      0.7951300      0.0158400      -0.3879000
C2        0.8157500      0.6562500      0.4495700      -0.0839000
H2        0.8111500      0.6383000      0.4294500       0.1128000
H3        0.7706500      0.7128500      0.0399000       0.1318667
H3        0.7971000      0.6818000      0.0614000       0.1318667
H3        0.8138000      0.7237500      0.0519500       0.1318667
N1        0.7951300      0.6586100      0.4841600      -0.3879000
C2        0.6562500      0.6842600      0.0504300      -0.0839000
H2        0.6383000      0.6888500      0.0705500       0.1128000
N1        0.6586100      0.7048700      0.0158400      -0.3879000
C2        0.6842600      0.8437500      0.4495700      -0.0839000
H2        0.6888500      0.8617000      0.4294500       0.1128000
H3        0.7293500      0.7871500      0.0399000       0.1318667
H3        0.7029000      0.8182000      0.0614000       0.1318667
H3        0.6862000      0.7762500      0.0519500       0.1318667
N1        0.7048700      0.8413900      0.4841600      -0.3879000
C2        0.9495700      0.8437500      0.1842600      -0.0839000
H2        0.9294500      0.8617000      0.1888500       0.1128000
H3        0.5399000      0.7871500      0.2293500       0.1318667
H3        0.5614000      0.8182000      0.2029000       0.1318667
H3        0.5519500      0.7762500      0.1862000       0.1318667
N1        0.9841600      0.8413900      0.2048700      -0.3879000
Zn        0.5000000      0.8750000      0.2500000       0.6918000
C2        0.9495700      0.6562500      0.3157500      -0.0839000
H2        0.9294500      0.6383000      0.3111500       0.1128000
N1        0.9841600      0.6586100      0.2951300      -0.3879000
Zn        0.5000000      0.6250000      0.2500000       0.6918000
C2        0.6562500      0.5504300      0.1842600      -0.0839000
H2        0.6383000      0.5705500      0.1888500       0.1128000
H3        0.7128500      0.9601000      0.2293500       0.1318667
H3        0.6818000      0.9386000      0.2029000       0.1318667
H3        0.7237500      0.9480500      0.1862000       0.1318667
N1        0.6586100      0.5158400      0.2048700      -0.3879000
Zn        0.6250000      0.5000000      0.2500000       0.6918000
C2        0.5504300      0.8437500      0.3157500      -0.0839000
H2        0.5705500      0.8617000      0.3111500       0.1128000
H3        0.9601000      0.7871500      0.2706500       0.1318667
H3        0.9386000      0.8182000      0.2971000       0.1318667
H3        0.9480500      0.7762500      0.3138000       0.1318667
N1        0.5158400      0.8413900      0.2951300      -0.3879000
C2        0.8437500      0.9495700      0.1842600      -0.0839000
H2        0.8617000      0.9294500      0.1888500       0.1128000
N1        0.8413900      0.9841600      0.2048700      -0.3879000
Zn        0.8750000      0.5000000      0.2500000       0.6918000
C2        0.5504300      0.6562500      0.1842600      -0.0839000
H2        0.5705500      0.6383000      0.1888500       0.1128000
N1        0.5158400      0.6586100      0.2048700      -0.3879000
C2        0.6562500      0.9495700      0.3157500      -0.0839000
H2        0.6383000      0.9294500      0.3111500       0.1128000
H3        0.7128500      0.5399000      0.2706500       0.1318667
H3        0.6818000      0.5614000      0.2971000       0.1318667
H3        0.7237500      0.5519500      0.3138000       0.1318667
N1        0.6586100      0.9841600      0.2951300      -0.3879000
C2        0.8437500      0.5504300      0.3157500      -0.0839000
H2        0.8617000      0.5705500      0.3111500       0.1128000
N1        0.8413900      0.5158400      0.2951300      -0.3879000
C1        0.9385300      0.7539500      0.0614700       0.4291000
C2        0.9342500      0.6995700      0.0937500      -0.0839000
H2        0.9388500      0.6794500      0.1117000       0.1128000
C3        0.9530500      0.7927500      0.0469500      -0.4526000
H3        0.9793500      0.7899000      0.0371500       0.1318667
H3        0.9529000      0.8114000      0.0682000       0.1318667
H3        0.9362000      0.8019500      0.0262500       0.1318667
N1        0.9548700      0.7341600      0.0913900      -0.3879000
C1        0.7539500      0.5614700      0.4385300       0.4291000
C2        0.6995700      0.5657500      0.4062500      -0.0839000
H2        0.6794500      0.5611500      0.3883000       0.1128000
C3        0.7927500      0.5469500      0.4530500      -0.4526000
N1        0.7341600      0.5451400      0.4086100      -0.3879000
C1        0.5614700      0.7460500      0.0614700       0.4291000
C2        0.5657500      0.8004300      0.0937500      -0.0839000
H2        0.5611500      0.8205500      0.1117000       0.1128000
C3        0.5469500      0.7072500      0.0469500      -0.4526000
H3        0.5206500      0.7101000      0.0371500       0.1318667
H3        0.5471000      0.6886000      0.0682000       0.1318667
H3        0.5638000      0.6980500      0.0262500       0.1318667
N1        0.5451400      0.7658400      0.0913900      -0.3879000
C1        0.7460500      0.9385300      0.4385300       0.4291000
C2        0.8004300      0.9342500      0.4062500      -0.0839000
H2        0.8205500      0.9388500      0.3883000       0.1128000
C3        0.7072500      0.9530500      0.4530500      -0.4526000
H3        0.7101000      0.9793500      0.4628500       0.1318667
H3        0.6886000      0.9529000      0.4318000       0.1318667
H3        0.6980500      0.9362000      0.4737500       0.1318667
N1        0.7658400      0.9548700      0.4086100      -0.3879000
C1        0.9385300      0.7460500      0.4385300       0.4291000
C2        0.9342500      0.8004300      0.4062500      -0.0839000
H2        0.9388500      0.8205500      0.3883000       0.1128000
C3        0.9530500      0.7072500      0.4530500      -0.4526000
H3        0.9793500      0.7101000      0.4628500       0.1318667
H3        0.9529000      0.6886000      0.4318000       0.1318667
H3        0.9362000      0.6980500      0.4737500       0.1318667
N1        0.9548700      0.7658400      0.4086100      -0.3879000
C1        0.7460500      0.5614700      0.0614700       0.4291000
C2        0.8004300      0.5657500      0.0937500      -0.0839000
H2        0.8205500      0.5611500      0.1117000       0.1128000
C3        0.7072500      0.5469500      0.0469500      -0.4526000
N1        0.7658400      0.5451400      0.0913900      -0.3879000
C1        0.5614700      0.7539500      0.4385300       0.4291000
C2        0.5657500      0.6995700      0.4062500      -0.0839000
H2        0.5611500      0.6794500      0.3883000       0.1128000
C3        0.5469500      0.7927500      0.4530500      -0.4526000
N1        0.5451400      0.7341600      0.4086100      -0.3879000
C1        0.7539500      0.9385300      0.0614700       0.4291000
C2        0.6995700      0.9342500      0.0937500      -0.0839000
H2        0.6794500      0.9388500      0.1117000       0.1128000
C3        0.7927500      0.9530500      0.0469500      -0.4526000
N1        0.7341600      0.9548700      0.0913900      -0.3879000
C1        0.5614700      0.9385300      0.2539500       0.4291000
C2        0.5937500      0.9342500      0.1995700      -0.0839000
H2        0.6117000      0.9388500      0.1794500       0.1128000
C3        0.5469500      0.9530500      0.2927500      -0.4526000
N1        0.5913900      0.9548700      0.2341600      -0.3879000
C1        0.9385300      0.9385300      0.2460500       0.4291000
C2        0.9342500      0.9062500      0.3004300      -0.0839000
H2        0.9388500      0.8883000      0.3205500       0.1128000
C3        0.9530500      0.9530500      0.2072500      -0.4526000
H3        0.9793500      0.9628500      0.2101000       0.1318667
H3        0.9529000      0.9318000      0.1886000       0.1318667
H3        0.9362000      0.9737500      0.1980500       0.1318667
N1        0.9548700      0.9086100      0.2658400      -0.3879000
C1        0.9385300      0.5614700      0.2539500       0.4291000
C2        0.9062500      0.5657500      0.1995700      -0.0839000
H2        0.8883000      0.5611500      0.1794500       0.1128000
C3        0.9530500      0.5469500      0.2927500      -0.4526000
N1        0.9086100      0.5451400      0.2341600      -0.3879000
C1        0.5614700      0.5614700      0.2460500       0.4291000
C2        0.5657500      0.5937500      0.3004300      -0.0839000
H2        0.5611500      0.6117000      0.3205500       0.1128000
C3        0.5469500      0.5469500      0.2072500      -0.4526000
H3        0.5206500      0.5371500      0.2101000       0.1318667
H3        0.5471000      0.5682000      0.1886000       0.1318667
H3        0.5638000      0.5262500      0.1980500       0.1318667
N1        0.5451400      0.5913900      0.2658400      -0.3879000
C2        0.5937500      0.5657500      0.3004300      -0.0839000
H2        0.6117000      0.5611500      0.3205500       0.1128000
N1        0.5913900      0.5451400      0.2658400      -0.3879000
C2        0.5657500      0.9062500      0.1995700      -0.0839000
H2        0.5611500      0.8883000      0.1794500       0.1128000
H3        0.5206500      0.9628500      0.2899000       0.1318667
H3        0.5471000      0.9318000      0.3114000       0.1318667
H3        0.5638000      0.9737500      0.3019500       0.1318667
N1        0.5451400      0.9086100      0.2341600      -0.3879000
C2        0.9062500      0.9342500      0.3004300      -0.0839000
H2        0.8883000      0.9388500      0.3205500       0.1128000
N1        0.9086100      0.9548700      0.2658400      -0.3879000
C2        0.9342500      0.5937500      0.1995700      -0.0839000
H2        0.9388500      0.6117000      0.1794500       0.1128000
H3        0.9793500      0.5371500      0.2899000       0.1318667
H3        0.9529000      0.5682000      0.3114000       0.1318667
H3        0.9362000      0.5262500      0.3019500       0.1318667
N1        0.9548700      0.5913900      0.2341600      -0.3879000
C2        0.6995700      0.5937500      0.4342500      -0.0839000
H2        0.6794500      0.6117000      0.4388500       0.1128000
H3        0.7899000      0.5371500      0.4793500       0.1318667
H3        0.8114000      0.5682000      0.4529000       0.1318667
H3        0.8019500      0.5262500      0.4362000       0.1318667
N1        0.7341600      0.5913900      0.4548600      -0.3879000
C2        0.6995700      0.9062500      0.0657500      -0.0839000
H2        0.6794500      0.8883000      0.0611500       0.1128000
H3        0.7899000      0.9628500      0.0206500       0.1318667
H3        0.8114000      0.9318000      0.0471000       0.1318667
H3        0.8019500      0.9737500      0.0638000       0.1318667
N1        0.7341600      0.9086100      0.0451400      -0.3879000
C2        0.9062500      0.8004300      0.4342500      -0.0839000
H2        0.8883000      0.8205500      0.4388500       0.1128000
N1        0.9086100      0.7658400      0.4548600      -0.3879000
C2        0.8004300      0.5937500      0.0657500      -0.0839000
H2        0.8205500      0.6117000      0.0611500       0.1128000
H3        0.7101000      0.5371500      0.0206500       0.1318667
H3        0.6886000      0.5682000      0.0471000       0.1318667
H3        0.6980500      0.5262500      0.0638000       0.1318667
N1        0.7658400      0.5913900      0.0451400      -0.3879000
C2        0.5937500      0.6995700      0.4342500      -0.0839000
H2        0.6117000      0.6794500      0.4388500       0.1128000
H3        0.5371500      0.7899000      0.4793500       0.1318667
H3        0.5682000      0.8114000      0.4529000       0.1318667
H3        0.5262500      0.8019500      0.4362000       0.1318667
N1        0.5913900      0.7341600      0.4548600      -0.3879000
C2        0.8004300      0.9062500      0.4342500      -0.0839000
H2        0.8205500      0.8883000      0.4388500       0.1128000
N1        0.7658400      0.9086100      0.4548600      -0.3879000
C2        0.9062500      0.6995700      0.0657500      -0.0839000
H2        0.8883000      0.6794500      0.0611500       0.1128000
N1        0.9086100      0.7341600      0.0451400      -0.3879000
C2        0.5937500      0.8004300      0.0657500      -0.0839000
H2        0.6117000      0.8205500      0.0611500       0.1128000
N1        0.5913900      0.7658400      0.0451400      -0.3879000
C1        0.1885300      0.0039500      0.8114800       0.4291000
C2        0.1842600      0.4495700      0.8437500      -0.0839000
H2        0.1888500      0.4294500      0.8617000       0.1128000
C3        0.2030500      0.0427500      0.7969500      -0.4526000
N1        0.2048700      0.4841600      0.8413900      -0.3879000
Zn        0.2500000      0.0000000      0.8750000       0.6918000
C1        0.0039500      0.3114800      0.6885300       0.4291000
C2        0.4495700      0.3157500      0.6562500      -0.0839000
H2        0.4294500      0.3111500      0.6383000       0.1128000
C3        0.0427500      0.2969500      0.7030500      -0.4526000
N1        0.4841600      0.2951300      0.6586100      -0.3879000
Zn        0.0000000      0.2500000      0.6250000       0.6918000
C1        0.3114800      0.4960500      0.8114800       0.4291000
C2        0.3157500      0.0504300      0.8437500      -0.0839000
H2        0.3111500      0.0705500      0.8617000       0.1128000
C3        0.2969500      0.4572500      0.7969500      -0.4526000
H3        0.2706500      0.4601000      0.7871500       0.1318667
H3        0.2971000      0.4386000      0.8182000       0.1318667
H3        0.3138000      0.4480500      0.7762500       0.1318667
N1        0.2951300      0.0158400      0.8413900      -0.3879000
C1        0.4960500      0.1885300      0.6885300       0.4291000
C2        0.0504300      0.1842600      0.6562500      -0.0839000
H2        0.0705500      0.1888500      0.6383000       0.1128000
C3        0.4572500      0.2030500      0.7030500      -0.4526000
H3        0.4601000      0.2293500      0.7128500       0.1318667
H3        0.4386000      0.2029000      0.6818000       0.1318667
H3        0.4480500      0.1862000      0.7237500       0.1318667
N1        0.0158400      0.2048700      0.6586100      -0.3879000
C1        0.1885300      0.4960500      0.6885300       0.4291000
C2        0.1842600      0.0504300      0.6562500      -0.0839000
H2        0.1888500      0.0705500      0.6383000       0.1128000
C3        0.2030500      0.4572500      0.7030500      -0.4526000
N1        0.2048700      0.0158400      0.6586100      -0.3879000
Zn        0.2500000      0.0000000      0.6250000       0.6918000
C1        0.4960500      0.3114800      0.8114800       0.4291000
C2        0.0504300      0.3157500      0.8437500      -0.0839000
H2        0.0705500      0.3111500      0.8617000       0.1128000
C3        0.4572500      0.2969500      0.7969500      -0.4526000
N1        0.0158400      0.2951300      0.8413900      -0.3879000
Zn        0.0000000      0.2500000      0.8750000       0.6918000
C1        0.3114800      0.0039500      0.6885300       0.4291000
C2        0.3157500      0.4495700      0.6562500      -0.0839000
H2        0.3111500      0.4294500      0.6383000       0.1128000
C3        0.2969500      0.0427500      0.7030500      -0.4526000
H3        0.2706500      0.0399000      0.7128500       0.1318667
H3        0.2971000      0.0614000      0.6818000       0.1318667
H3        0.3138000      0.0519500      0.7237500       0.1318667
N1        0.2951300      0.4841600      0.6586100      -0.3879000
C1        0.0039500      0.1885300      0.8114800       0.4291000
C2        0.4495700      0.1842600      0.8437500      -0.0839000
H2        0.4294500      0.1888500      0.8617000       0.1128000
C3        0.0427500      0.2030500      0.7969500      -0.4526000
H3        0.0399000      0.2293500      0.7871500       0.1318667
H3        0.0614000      0.2029000      0.8182000       0.1318667
H3        0.0519500      0.1862000      0.7762500       0.1318667
N1        0.4841600      0.2048700      0.8413900      -0.3879000
C1        0.3114800      0.1885300      0.5039500       0.4291000
C2        0.3437500      0.1842600      0.9495700      -0.0839000
H2        0.3617000      0.1888500      0.9294500       0.1128000
C3        0.2969500      0.2030500      0.5427500      -0.4526000
N1        0.3413900      0.2048700      0.9841600      -0.3879000
Zn        0.3750000      0.2500000      0.5000000       0.6918000
C1        0.1885300      0.1885300      0.9960500       0.4291000
C2        0.1842600      0.1562500      0.5504300      -0.0839000
H2        0.1888500      0.1383000      0.5705500       0.1128000
C3        0.2030500      0.2030500      0.9572500      -0.4526000
H3        0.2293500      0.2128500      0.9601000       0.1318667
H3        0.2029000      0.1818000      0.9386000       0.1318667
H3        0.1862000      0.2237500      0.9480500       0.1318667
N1        0.2048700      0.1586100      0.5158400      -0.3879000
Zn        0.2500000      0.1250000      0.5000000       0.6918000
C1        0.1885300      0.3114800      0.5039500       0.4291000
C2        0.1562500      0.3157500      0.9495700      -0.0839000
H2        0.1383000      0.3111500      0.9294500       0.1128000
C3        0.2030500      0.2969500      0.5427500      -0.4526000
N1        0.1586100      0.2951300      0.9841600      -0.3879000
Zn        0.1250000      0.2500000      0.5000000       0.6918000
C1        0.3114800      0.3114800      0.9960500       0.4291000
C2        0.3157500      0.3437500      0.5504300      -0.0839000
H2        0.3111500      0.3617000      0.5705500       0.1128000
C3        0.2969500      0.2969500      0.9572500      -0.4526000
H3        0.2706500      0.2871500      0.9601000       0.1318667
H3        0.2971000      0.3182000      0.9386000       0.1318667
H3        0.3138000      0.2762500      0.9480500       0.1318667
N1        0.2951300      0.3413900      0.5158400      -0.3879000
Zn        0.2500000      0.3750000      0.5000000       0.6918000
C2        0.3437500      0.3157500      0.5504300      -0.0839000
H2        0.3617000      0.3111500      0.5705500       0.1128000
N1        0.3413900      0.2951300      0.5158400      -0.3879000
C2        0.3157500      0.1562500      0.9495700      -0.0839000
H2        0.3111500      0.1383000      0.9294500       0.1128000
H3        0.2706500      0.2128500      0.5399000       0.1318667
H3        0.2971000      0.1818000      0.5614000       0.1318667
H3        0.3138000      0.2237500      0.5519500       0.1318667
N1        0.2951300      0.1586100      0.9841600      -0.3879000
C2        0.1562500      0.1842600      0.5504300      -0.0839000
H2        0.1383000      0.1888500      0.5705500       0.1128000
N1        0.1586100      0.2048700      0.5158400      -0.3879000
C2        0.1842600      0.3437500      0.9495700      -0.0839000
H2        0.1888500      0.3617000      0.9294500       0.1128000
H3        0.2293500      0.2871500      0.5399000       0.1318667
H3        0.2029000      0.3182000      0.5614000       0.1318667
H3        0.1862000      0.2762500      0.5519500       0.1318667
N1        0.2048700      0.3413900      0.9841600      -0.3879000
C2        0.4495700      0.3437500      0.6842600      -0.0839000
H2        0.4294500      0.3617000      0.6888500       0.1128000
H3        0.0399000      0.2871500      0.7293500       0.1318667
H3        0.0614000      0.3182000      0.7029000       0.1318667
H3        0.0519500      0.2762500      0.6862000       0.1318667
N1        0.4841600      0.3413900      0.7048700      -0.3879000
Zn        0.0000000      0.3750000      0.7500000       0.6918000
C2        0.4495700      0.1562500      0.8157500      -0.0839000
H2        0.4294500      0.1383000      0.8111500       0.1128000
N1        0.4841600      0.1586100      0.7951300      -0.3879000
Zn        0.0000000      0.1250000      0.7500000       0.6918000
C2        0.1562500      0.0504300      0.6842600      -0.0839000
H2        0.1383000      0.0705500      0.6888500       0.1128000
H3        0.2128500      0.4601000      0.7293500       0.1318667
H3        0.1818000      0.4386000      0.7029000       0.1318667
H3        0.2237500      0.4480500      0.6862000       0.1318667
N1        0.1586100      0.0158400      0.7048700      -0.3879000
Zn        0.1250000      0.0000000      0.7500000       0.6918000
C2        0.0504300      0.3437500      0.8157500      -0.0839000
H2        0.0705500      0.3617000      0.8111500       0.1128000
H3        0.4601000      0.2871500      0.7706500       0.1318667
H3        0.4386000      0.3182000      0.7971000       0.1318667
H3        0.4480500      0.2762500      0.8138000       0.1318667
N1        0.0158400      0.3413900      0.7951300      -0.3879000
C2        0.3437500      0.4495700      0.6842600      -0.0839000
H2        0.3617000      0.4294500      0.6888500       0.1128000
N1        0.3413900      0.4841600      0.7048700      -0.3879000
Zn        0.3750000      0.0000000      0.7500000       0.6918000
C2        0.0504300      0.1562500      0.6842600      -0.0839000
H2        0.0705500      0.1383000      0.6888500       0.1128000
N1        0.0158400      0.1586100      0.7048700      -0.3879000
C2        0.1562500      0.4495700      0.8157500      -0.0839000
H2        0.1383000      0.4294500      0.8111500       0.1128000
H3        0.2128500      0.0399000      0.7706500       0.1318667
H3        0.1818000      0.0614000      0.7971000       0.1318667
H3        0.2237500      0.0519500      0.8138000       0.1318667
N1        0.1586100      0.4841600      0.7951300      -0.3879000
C2        0.3437500      0.0504300      0.8157500      -0.0839000
H2        0.3617000      0.0705500      0.8111500       0.1128000
N1        0.3413900      0.0158400      0.7951300      -0.3879000
C1        0.4385300      0.2539500      0.5614700       0.4291000
C2        0.4342500      0.1995700      0.5937500      -0.0839000
H2        0.4388500      0.1794500      0.6117000       0.1128000
C3        0.4530500      0.2927500      0.5469500      -0.4526000
H3        0.4793500      0.2899000      0.5371500       0.1318667
H3        0.4529000      0.3114000      0.5682000       0.1318667
H3        0.4362000      0.3019500      0.5262500       0.1318667
N1        0.4548600      0.2341600      0.5913900      -0.3879000
C1        0.2539500      0.0614700      0.9385300       0.4291000
C2        0.1995700      0.0657500      0.9062500      -0.0839000
H2        0.1794500      0.0611500      0.8883000       0.1128000
C3        0.2927500      0.0469500      0.9530500      -0.4526000
N1        0.2341600      0.0451400      0.9086100      -0.3879000
C1        0.0614700      0.2460500      0.5614700       0.4291000
C2        0.0657500      0.3004300      0.5937500      -0.0839000
H2        0.0611500      0.3205500      0.6117000       0.1128000
C3        0.0469500      0.2072500      0.5469500      -0.4526000
H3        0.0206500      0.2101000      0.5371500       0.1318667
H3        0.0471000      0.1886000      0.5682000       0.1318667
H3        0.0638000      0.1980500      0.5262500       0.1318667
N1        0.0451400      0.2658400      0.5913900      -0.3879000
C1        0.2460500      0.4385300      0.9385300       0.4291000
C2        0.3004300      0.4342500      0.9062500      -0.0839000
H2        0.3205500      0.4388500      0.8883000       0.1128000
C3        0.2072500      0.4530500      0.9530500      -0.4526000
H3        0.2101000      0.4793500      0.9628500       0.1318667
H3        0.1886000      0.4529000      0.9318000       0.1318667
H3        0.1980500      0.4362000      0.9737500       0.1318667
N1        0.2658400      0.4548600      0.9086100      -0.3879000
C1        0.4385300      0.2460500      0.9385300       0.4291000
C2        0.4342500      0.3004300      0.9062500      -0.0839000
H2        0.4388500      0.3205500      0.8883000       0.1128000
C3        0.4530500      0.2072500      0.9530500      -0.4526000
H3        0.4793500      0.2101000      0.9628500       0.1318667
H3        0.4529000      0.1886000      0.9318000       0.1318667
H3        0.4362000      0.1980500      0.9737500       0.1318667
N1        0.4548600      0.2658400      0.9086100      -0.3879000
C1        0.2460500      0.0614700      0.5614700       0.4291000
C2        0.3004300      0.0657500      0.5937500      -0.0839000
H2        0.3205500      0.0611500      0.6117000       0.1128000
C3        0.2072500      0.0469500      0.5469500      -0.4526000
N1        0.2658400      0.0451400      0.5913900      -0.3879000
C1        0.0614700      0.2539500      0.9385300       0.4291000
C2        0.0657500      0.1995700      0.9062500      -0.0839000
H2        0.0611500      0.1794500      0.8883000       0.1128000
C3        0.0469500      0.2927500      0.9530500      -0.4526000
N1        0.0451400      0.2341600      0.9086100      -0.3879000
C1        0.2539500      0.4385300      0.5614700       0.4291000
C2        0.1995700      0.4342500      0.5937500      -0.0839000
H2        0.1794500      0.4388500      0.6117000       0.1128000
C3        0.2927500      0.4530500      0.5469500      -0.4526000
N1        0.2341600      0.4548600      0.5913900      -0.3879000
C1        0.0614700      0.4385300      0.7539500       0.4291000
C2        0.0937500      0.4342500      0.6995700      -0.0839000
H2        0.1117000      0.4388500      0.6794500       0.1128000
C3        0.0469500      0.4530500      0.7927500      -0.4526000
N1        0.0913900      0.4548600      0.7341600      -0.3879000
C1        0.4385300      0.4385300      0.7460500       0.4291000
C2        0.4342500      0.4062500      0.8004300      -0.0839000
H2        0.4388500      0.3883000      0.8205500       0.1128000
C3        0.4530500      0.4530500      0.7072500      -0.4526000
H3        0.4793500      0.4628500      0.7101000       0.1318667
H3        0.4529000      0.4318000      0.6886000       0.1318667
H3        0.4362000      0.4737500      0.6980500       0.1318667
N1        0.4548600      0.4086100      0.7658400      -0.3879000
C1        0.4385300      0.0614700      0.7539500       0.4291000
C2        0.4062500      0.0657500      0.6995700      -0.0839000
H2        0.3883000      0.0611500      0.6794500       0.1128000
C3        0.4530500      0.0469500      0.7927500      -0.4526000
N1        0.4086100      0.0451400      0.7341600      -0.3879000
C1        0.0614700      0.0614700      0.7460500       0.4291000
C2        0.0657500      0.0937500      0.8004300      -0.0839000
H2        0.0611500      0.1117000      0.8205500       0.1128000
C3        0.0469500      0.0469500      0.7072500      -0.4526000
H3        0.0206500      0.0371500      0.7101000       0.1318667
H3        0.0471000      0.0682000      0.6886000       0.1318667
H3        0.0638000      0.0262500      0.6980500       0.1318667
N1        0.0451400      0.0913900      0.7658400      -0.3879000
C2        0.0937500      0.0657500      0.8004300      -0.0839000
H2        0.1117000      0.0611500      0.8205500       0.1128000
N1        0.0913900      0.0451400      0.7658400      -0.3879000
C2        0.0657500      0.4062500      0.6995700      -0.0839000
H2        0.0611500      0.3883000      0.6794500       0.1128000
H3        0.0206500      0.4628500      0.7899000       0.1318667
H3        0.0471000      0.4318000      0.8114000       0.1318667
H3        0.0638000      0.4737500      0.8019500       0.1318667
N1        0.0451400      0.4086100      0.7341600      -0.3879000
C2        0.4062500      0.4342500      0.8004300      -0.0839000
H2        0.3883000      0.4388500      0.8205500       0.1128000
N1        0.4086100      0.4548600      0.7658400      -0.3879000
C2        0.4342500      0.0937500      0.6995700      -0.0839000
H2        0.4388500      0.1117000      0.6794500       0.1128000
H3        0.4793500      0.0371500      0.7899000       0.1318667
H3        0.4529000      0.0682000      0.8114000       0.1318667
H3        0.4362000      0.0262500      0.8019500       0.1318667
N1        0.4548600      0.0913900      0.7341600      -0.3879000
C2        0.1995700      0.0937500      0.9342500      -0.0839000
H2        0.1794500      0.1117000      0.9388500       0.1128000
H3        0.2899000      0.0371500      0.9793500       0.1318667
H3        0.3114000      0.0682000      0.9529000       0.1318667
H3        0.3019500      0.0262500      0.9362000       0.1318667
N1        0.2341600      0.0913900      0.9548700      -0.3879000
C2        0.1995700      0.4062500      0.5657500      -0.0839000
H2        0.1794500      0.3883000      0.5611500       0.1128000
H3        0.2899000      0.4628500      0.5206500       0.1318667
H3        0.3114000      0.4318000      0.5471000       0.1318667
H3        0.3019500      0.4737500      0.5638000       0.1318667
N1        0.2341600      0.4086100      0.5451400      -0.3879000
C2        0.4062500      0.3004300      0.9342500      -0.0839000
H2        0.3883000      0.3205500      0.9388500       0.1128000
N1        0.4086100      0.2658400      0.9548700      -0.3879000
C2        0.3004300      0.0937500      0.5657500      -0.0839000
H2        0.3205500      0.1117000      0.5611500       0.1128000
H3        0.2101000      0.0371500      0.5206500       0.1318667
H3        0.1886000      0.0682000      0.5471000       0.1318667
H3        0.1980500      0.0262500      0.5638000       0.1318667
N1        0.2658400      0.0913900      0.5451400      -0.3879000
C2        0.0937500      0.1995700      0.9342500      -0.0839000
H2        0.1117000      0.1794500      0.9388500       0.1128000
H3        0.0371500      0.2899000      0.9793500       0.1318667
H3        0.0682000      0.3114000      0.9529000       0.1318667
H3        0.0262500      0.3019500      0.9362000       0.1318667
N1        0.0913900      0.2341600      0.9548700      -0.3879000
C2        0.3004300      0.4062500      0.9342500      -0.0839000
H2        0.3205500      0.3883000      0.9388500       0.1128000
N1        0.2658400      0.4086100      0.9548700      -0.3879000
C2        0.4062500      0.1995700      0.5657500      -0.0839000
H2        0.3883000      0.1794500      0.5611500       0.1128000
N1        0.4086100      0.2341600      0.5451400      -0.3879000
C2        0.0937500      0.3004300      0.5657500      -0.0839000
H2        0.1117000      0.3205500      0.5611500       0.1128000
N1        0.0913900      0.2658400      0.5451400      -0.3879000
C1        0.6885300      0.0039500      0.8114800       0.4291000
C2        0.6842600      0.4495700      0.8437500      -0.0839000
H2        0.6888500      0.4294500      0.8617000       0.1128000
C3        0.7030500      0.0427500      0.7969500      -0.4526000
N1        0.7048700      0.4841600      0.8413900      -0.3879000
Zn        0.7500000      0.0000000      0.8750000       0.6918000
C1        0.5039500      0.3114800      0.6885300       0.4291000
C2        0.9495700      0.3157500      0.6562500      -0.0839000
H2        0.9294500      0.3111500      0.6383000       0.1128000
C3        0.5427500      0.2969500      0.7030500      -0.4526000
N1        0.9841600      0.2951300      0.6586100      -0.3879000
Zn        0.5000000      0.2500000      0.6250000       0.6918000
C1        0.8114800      0.4960500      0.8114800       0.4291000
C2        0.8157500      0.0504300      0.8437500      -0.0839000
H2        0.8111500      0.0705500      0.8617000       0.1128000
C3        0.7969500      0.4572500      0.7969500      -0.4526000
H3        0.7706500      0.4601000      0.7871500       0.1318667
H3        0.7971000      0.4386000      0.8182000       0.1318667
H3        0.8138000      0.4480500      0.7762500       0.1318667
N1        0.7951300      0.0158400      0.8413900      -0.3879000
C1        0.9960500      0.1885300      0.6885300       0.4291000
C2        0.5504300      0.1842600      0.6562500      -0.0839000
H2        0.5705500      0.1888500      0.6383000       0.1128000
C3        0.9572500      0.2030500      0.7030500      -0.4526000
H3        0.9601000      0.2293500      0.7128500       0.1318667
H3        0.9386000      0.2029000      0.6818000       0.1318667
H3        0.9480500      0.1862000      0.7237500       0.1318667
N1        0.5158400      0.2048700      0.6586100      -0.3879000
C1        0.6885300      0.4960500      0.6885300       0.4291000
C2        0.6842600      0.0504300      0.6562500      -0.0839000
H2        0.6888500      0.0705500      0.6383000       0.1128000
C3        0.7030500      0.4572500      0.7030500      -0.4526000
N1        0.7048700      0.0158400      0.6586100      -0.3879000
Zn        0.7500000      0.0000000      0.6250000       0.6918000
C1        0.9960500      0.3114800      0.8114800       0.4291000
C2        0.5504300      0.3157500      0.8437500      -0.0839000
H2        0.5705500      0.3111500      0.8617000       0.1128000
C3        0.9572500      0.2969500      0.7969500      -0.4526000
N1        0.5158400      0.2951300      0.8413900      -0.3879000
Zn        0.5000000      0.2500000      0.8750000       0.6918000
C1        0.8114800      0.0039500      0.6885300       0.4291000
C2        0.8157500      0.4495700      0.6562500      -0.0839000
H2        0.8111500      0.4294500      0.6383000       0.1128000
C3        0.7969500      0.0427500      0.7030500      -0.4526000
H3        0.7706500      0.0399000      0.7128500       0.1318667
H3        0.7971000      0.0614000      0.6818000       0.1318667
H3        0.8138000      0.0519500      0.7237500       0.1318667
N1        0.7951300      0.4841600      0.6586100      -0.3879000
C1        0.5039500      0.1885300      0.8114800       0.4291000
C2        0.9495700      0.1842600      0.8437500      -0.0839000
H2        0.9294500      0.1888500      0.8617000       0.1128000
C3        0.5427500      0.2030500      0.7969500      -0.4526000
H3        0.5399000      0.2293500      0.7871500       0.1318667
H3        0.5614000      0.2029000      0.8182000       0.1318667
H3        0.5519500      0.1862000      0.7762500       0.1318667
N1        0.9841600      0.2048700      0.8413900      -0.3879000
C1        0.8114800      0.1885300      0.5039500       0.4291000
C2        0.8437500      0.1842600      0.9495700      -0.0839000
H2        0.8617000      0.1888500      0.9294500       0.1128000
C3        0.7969500      0.2030500      0.5427500      -0.4526000
N1        0.8413900      0.2048700      0.9841600      -0.3879000
Zn        0.8750000      0.2500000      0.5000000       0.6918000
C1        0.6885300      0.1885300      0.9960500       0.4291000
C2        0.6842600      0.1562500      0.5504300      -0.0839000
H2        0.6888500      0.1383000      0.5705500       0.1128000
C3        0.7030500      0.2030500      0.9572500      -0.4526000
H3        0.7293500      0.2128500      0.9601000       0.1318667
H3        0.7029000      0.1818000      0.9386000       0.1318667
H3        0.6862000      0.2237500      0.9480500       0.1318667
N1        0.7048700      0.1586100      0.5158400      -0.3879000
Zn        0.7500000      0.1250000      0.5000000       0.6918000
C1        0.6885300      0.3114800      0.5039500       0.4291000
C2        0.6562500      0.3157500      0.9495700      -0.0839000
H2        0.6383000      0.3111500      0.9294500       0.1128000
C3        0.7030500      0.2969500      0.5427500      -0.4526000
N1        0.6586100      0.2951300      0.9841600      -0.3879000
Zn        0.6250000      0.2500000      0.5000000       0.6918000
C1        0.8114800      0.3114800      0.9960500       0.4291000
C2        0.8157500      0.3437500      0.5504300      -0.0839000
H2        0.8111500      0.3617000      0.5705500       0.1128000
C3        0.7969500      0.2969500      0.9572500      -0.4526000
H3        0.7706500      0.2871500      0.9601000       0.1318667
H3        0.7971000      0.3182000      0.9386000       0.1318667
H3        0.8138000      0.2762500      0.9480500       0.1318667
N1        0.7951300      0.3413900      0.5158400      -0.3879000
Zn        0.7500000      0.3750000      0.5000000       0.6918000
C2        0.8437500      0.3157500      0.5504300      -0.0839000
H2        0.8617000      0.3111500      0.5705500       0.1128000
N1        0.8413900      0.2951300      0.5158400      -0.3879000
C2        0.8157500      0.1562500      0.9495700      -0.0839000
H2        0.8111500      0.1383000      0.9294500       0.1128000
H3        0.7706500      0.2128500      0.5399000       0.1318667
H3        0.7971000      0.1818000      0.5614000       0.1318667
H3        0.8138000      0.2237500      0.5519500       0.1318667
N1        0.7951300      0.1586100      0.9841600      -0.3879000
C2        0.6562500      0.1842600      0.5504300      -0.0839000
H2        0.6383000      0.1888500      0.5705500       0.1128000
N1        0.6586100      0.2048700      0.5158400      -0.3879000
C2        0.6842600      0.3437500      0.9495700      -0.0839000
H2        0.6888500      0.3617000      0.9294500       0.1128000
H3        0.7293500      0.2871500      0.5399000       0.1318667
H3        0.7029000      0.3182000      0.5614000       0.1318667
H3        0.6862000      0.2762500      0.5519500       0.1318667
N1        0.7048700      0.3413900      0.9841600      -0.3879000
C2        0.9495700      0.3437500      0.6842600      -0.0839000
H2        0.9294500      0.3617000      0.6888500       0.1128000
H3        0.5399000      0.2871500      0.7293500       0.1318667
H3        0.5614000      0.3182000      0.7029000       0.1318667
H3        0.5519500      0.2762500      0.6862000       0.1318667
N1        0.9841600      0.3413900      0.7048700      -0.3879000
Zn        0.5000000      0.3750000      0.7500000       0.6918000
C2        0.9495700      0.1562500      0.8157500      -0.0839000
H2        0.9294500      0.1383000      0.8111500       0.1128000
N1        0.9841600      0.1586100      0.7951300      -0.3879000
Zn        0.5000000      0.1250000      0.7500000       0.6918000
C2        0.6562500      0.0504300      0.6842600      -0.0839000
H2        0.6383000      0.0705500      0.6888500       0.1128000
H3        0.7128500      0.4601000      0.7293500       0.1318667
H3        0.6818000      0.4386000      0.7029000       0.1318667
H3        0.7237500      0.4480500      0.6862000       0.1318667
N1        0.6586100      0.0158400      0.7048700      -0.3879000
Zn        0.6250000      0.0000000      0.7500000       0.6918000
C2        0.5504300      0.3437500      0.8157500      -0.0839000
H2        0.5705500      0.3617000      0.8111500       0.1128000
H3        0.9601000      0.2871500      0.7706500       0.1318667
H3        0.9386000      0.3182000      0.7971000       0.1318667
H3        0.9480500      0.2762500      0.8138000       0.1318667
N1        0.5158400      0.3413900      0.7951300      -0.3879000
C2        0.8437500      0.4495700      0.6842600      -0.0839000
H2        0.8617000      0.4294500      0.6888500       0.1128000
N1        0.8413900      0.4841600      0.7048700      -0.3879000
Zn        0.8750000      0.0000000      0.7500000       0.6918000
C2        0.5504300      0.1562500      0.6842600      -0.0839000
H2        0.5705500      0.1383000      0.6888500       0.1128000
N1        0.5158400      0.1586100      0.7048700      -0.3879000
C2        0.6562500      0.4495700      0.8157500      -0.0839000
H2        0.6383000      0.4294500      0.8111500       0.1128000
H3        0.7128500      0.0399000      0.7706500       0.1318667
H3        0.6818000      0.0614000      0.7971000       0.1318667
H3        0.7237500      0.0519500      0.8138000       0.1318667
N1        0.6586100      0.4841600      0.7951300      -0.3879000
C2        0.8437500      0.0504300      0.8157500      -0.0839000
H2        0.8617000      0.0705500      0.8111500       0.1128000
N1        0.8413900      0.0158400      0.7951300      -0.3879000
C1        0.9385300      0.2539500      0.5614700       0.4291000
C2        0.9342500      0.1995700      0.5937500      -0.0839000
H2        0.9388500      0.1794500      0.6117000       0.1128000
C3        0.9530500      0.2927500      0.5469500      -0.4526000
H3        0.9793500      0.2899000      0.5371500       0.1318667
H3        0.9529000      0.3114000      0.5682000       0.1318667
H3        0.9362000      0.3019500      0.5262500       0.1318667
N1        0.9548700      0.2341600      0.5913900      -0.3879000
C1        0.7539500      0.0614700      0.9385300       0.4291000
C2        0.6995700      0.0657500      0.9062500      -0.0839000
H2        0.6794500      0.0611500      0.8883000       0.1128000
C3        0.7927500      0.0469500      0.9530500      -0.4526000
N1        0.7341600      0.0451400      0.9086100      -0.3879000
C1        0.5614700      0.2460500      0.5614700       0.4291000
C2        0.5657500      0.3004300      0.5937500      -0.0839000
H2        0.5611500      0.3205500      0.6117000       0.1128000
C3        0.5469500      0.2072500      0.5469500      -0.4526000
H3        0.5206500      0.2101000      0.5371500       0.1318667
H3        0.5471000      0.1886000      0.5682000       0.1318667
H3        0.5638000      0.1980500      0.5262500       0.1318667
N1        0.5451400      0.2658400      0.5913900      -0.3879000
C1        0.7460500      0.4385300      0.9385300       0.4291000
C2        0.8004300      0.4342500      0.9062500      -0.0839000
H2        0.8205500      0.4388500      0.8883000       0.1128000
C3        0.7072500      0.4530500      0.9530500      -0.4526000
H3        0.7101000      0.4793500      0.9628500       0.1318667
H3        0.6886000      0.4529000      0.9318000       0.1318667
H3        0.6980500      0.4362000      0.9737500       0.1318667
N1        0.7658400      0.4548600      0.9086100      -0.3879000
C1        0.9385300      0.2460500      0.9385300       0.4291000
C2        0.9342500      0.3004300      0.9062500      -0.0839000
H2        0.9388500      0.3205500      0.8883000       0.1128000
C3        0.9530500      0.2072500      0.9530500      -0.4526000
H3        0.9793500      0.2101000      0.9628500       0.1318667
H3        0.9529000      0.1886000      0.9318000       0.1318667
H3        0.9362000      0.1980500      0.9737500       0.1318667
N1        0.9548700      0.2658400      0.9086100      -0.3879000
C1        0.7460500      0.0614700      0.5614700       0.4291000
C2        0.8004300      0.0657500      0.5937500      -0.0839000
H2        0.8205500      0.0611500      0.6117000       0.1128000
C3        0.7072500      0.0469500      0.5469500      -0.4526000
N1        0.7658400      0.0451400      0.5913900      -0.3879000
C1        0.5614700      0.2539500      0.9385300       0.4291000
C2        0.5657500      0.1995700      0.9062500      -0.0839000
H2        0.5611500      0.1794500      0.8883000       0.1128000
C3        0.5469500      0.2927500      0.9530500      -0.4526000
N1        0.5451400      0.2341600      0.9086100      -0.3879000
C1        0.7539500      0.4385300      0.5614700       0.4291000
C2        0.6995700      0.4342500      0.5937500      -0.0839000
H2        0.6794500      0.4388500      0.6117000       0.1128000
C3        0.7927500      0.4530500      0.5469500      -0.4526000
N1        0.7341600      0.4548600      0.5913900      -0.3879000
C1        0.5614700      0.4385300      0.7539500       0.4291000
C2        0.5937500      0.4342500      0.6995700      -0.0839000
H2        0.6117000      0.4388500      0.6794500       0.1128000
C3        0.5469500      0.4530500      0.7927500      -0.4526000
N1        0.5913900      0.4548600      0.7341600      -0.3879000
C1        0.9385300      0.4385300      0.7460500       0.4291000
C2        0.9342500      0.4062500      0.8004300      -0.0839000
H2        0.9388500      0.3883000      0.8205500       0.1128000
C3        0.9530500      0.4530500      0.7072500      -0.4526000
H3        0.9793500      0.4628500      0.7101000       0.1318667
H3        0.9529000      0.4318000      0.6886000       0.1318667
H3        0.9362000      0.4737500      0.6980500       0.1318667
N1        0.9548700      0.4086100      0.7658400      -0.3879000
C1        0.9385300      0.0614700      0.7539500       0.4291000
C2        0.9062500      0.0657500      0.6995700      -0.0839000
H2        0.8883000      0.0611500      0.6794500       0.1128000
C3        0.9530500      0.0469500      0.7927500      -0.4526000
N1        0.9086100      0.0451400      0.7341600      -0.3879000
C1        0.5614700      0.0614700      0.7460500       0.4291000
C2        0.5657500      0.0937500      0.8004300      -0.0839000
H2        0.5611500      0.1117000      0.8205500       0.1128000
C3        0.5469500      0.0469500      0.7072500      -0.4526000
H3        0.5206500      0.0371500      0.7101000       0.1318667
H3        0.5471000      0.0682000      0.6886000       0.1318667
H3        0.5638000      0.0262500      0.6980500       0.1318667
N1        0.5451400      0.0913900      0.7658400      -0.3879000
C2        0.5937500      0.0657500      0.8004300      -0.0839000
H2        0.6117000      0.0611500      0.8205500       0.1128000
N1        0.5913900      0.0451400      0.7658400      -0.3879000
C2        0.5657500      0.4062500      0.6995700      -0.0839000
H2        0.5611500      0.3883000      0.6794500       0.1128000
H3        0.5206500      0.4628500      0.7899000       0.1318667
H3        0.5471000      0.4318000      0.8114000       0.1318667
H3        0.5638000      0.4737500      0.8019500       0.1318667
N1        0.5451400      0.4086100      0.7341600      -0.3879000
C2        0.9062500      0.4342500      0.8004300      -0.0839000
H2        0.8883000      0.4388500      0.8205500       0.1128000
N1        0.9086100      0.4548600      0.7658400      -0.3879000
C2        0.9342500      0.0937500      0.6995700      -0.0839000
H2        0.9388500      0.1117000      0.6794500       0.1128000
H3        0.9793500      0.0371500      0.7899000       0.1318667
H3        0.9529000      0.0682000      0.8114000       0.1318667
H3        0.9362000      0.0262500      0.8019500       0.1318667
N1        0.9548700      0.0913900      0.7341600      -0.3879000
C2        0.6995700      0.0937500      0.9342500      -0.0839000
H2        0.6794500      0.1117000      0.9388500       0.1128000
H3        0.7899000      0.0371500      0.9793500       0.1318667
H3        0.8114000      0.0682000      0.9529000       0.1318667
H3        0.8019500      0.0262500      0.9362000       0.1318667
N1        0.7341600      0.0913900      0.9548700      -0.3879000
C2        0.6995700      0.4062500      0.5657500      -0.0839000
H2        0.6794500      0.3883000      0.5611500       0.1128000
H3        0.7899000      0.4628500      0.5206500       0.1318667
H3        0.8114000      0.4318000      0.5471000       0.1318667
H3        0.8019500      0.4737500      0.5638000       0.1318667
N1        0.7341600      0.4086100      0.5451400      -0.3879000
C2        0.9062500      0.3004300      0.9342500      -0.0839000
H2        0.8883000      0.3205500      0.9388500       0.1128000
N1        0.9086100      0.2658400      0.9548700      -0.3879000
C2        0.8004300      0.0937500      0.5657500      -0.0839000
H2        0.8205500      0.1117000      0.5611500       0.1128000
H3        0.7101000      0.0371500      0.5206500       0.1318667
H3        0.6886000      0.0682000      0.5471000       0.1318667
H3        0.6980500      0.0262500      0.5638000       0.1318667
N1        0.7658400      0.0913900      0.5451400      -0.3879000
C2        0.5937500      0.1995700      0.9342500      -0.0839000
H2        0.6117000      0.1794500      0.9388500       0.1128000
H3        0.5371500      0.2899000      0.9793500       0.1318667
H3        0.5682000      0.3114000      0.9529000       0.1318667
H3        0.5262500      0.3019500      0.9362000       0.1318667
N1        0.5913900      0.2341600      0.9548700      -0.3879000
C2        0.8004300      0.4062500      0.9342500      -0.0839000
H2        0.8205500      0.3883000      0.9388500       0.1128000
N1        0.7658400      0.4086100      0.9548700      -0.3879000
C2        0.9062500      0.1995700      0.5657500      -0.0839000
H2        0.8883000      0.1794500      0.5611500       0.1128000
N1        0.9086100      0.2341600      0.5451400      -0.3879000
C2        0.5937500      0.3004300      0.5657500      -0.0839000
H2        0.6117000      0.3205500      0.5611500       0.1128000
N1        0.5913900      0.2658400      0.5451400      -0.3879000
C1        0.1885300      0.5039500      0.8114800       0.4291000
C2        0.1842600      0.9495700      0.8437500      -0.0839000
H2        0.1888500      0.9294500      0.8617000       0.1128000
C3        0.2030500      0.5427500      0.7969500      -0.4526000
N1        0.2048700      0.9841600      0.8413900      -0.3879000
Zn        0.2500000      0.5000000      0.8750000       0.6918000
C1        0.0039500      0.8114800      0.6885300       0.4291000
C2        0.4495700      0.8157500      0.6562500      -0.0839000
H2        0.4294500      0.8111500      0.6383000       0.1128000
C3        0.0427500      0.7969500      0.7030500      -0.4526000
N1        0.4841600      0.7951300      0.6586100      -0.3879000
Zn        0.0000000      0.7500000      0.6250000       0.6918000
C1        0.3114800      0.9960500      0.8114800       0.4291000
C2        0.3157500      0.5504300      0.8437500      -0.0839000
H2        0.3111500      0.5705500      0.8617000       0.1128000
C3        0.2969500      0.9572500      0.7969500      -0.4526000
H3        0.2706500      0.9601000      0.7871500       0.1318667
H3        0.2971000      0.9386000      0.8182000       0.1318667
H3        0.3138000      0.9480500      0.7762500       0.1318667
N1        0.2951300      0.5158400      0.8413900      -0.3879000
C1        0.4960500      0.6885300      0.6885300       0.4291000
C2        0.0504300      0.6842600      0.6562500      -0.0839000
H2        0.0705500      0.6888500      0.6383000       0.1128000
C3        0.4572500      0.7030500      0.7030500      -0.4526000
H3        0.4601000      0.7293500      0.7128500       0.1318667
H3        0.4386000      0.7029000      0.6818000       0.1318667
H3        0.4480500      0.6862000      0.7237500       0.1318667
N1        0.0158400      0.7048700      0.6586100      -0.3879000
C1        0.1885300      0.9960500      0.6885300       0.4291000
C2        0.1842600      0.5504300      0.6562500      -0.0839000
H2        0.1888500      0.5705500      0.6383000       0.1128000
C3        0.2030500      0.9572500      0.7030500      -0.4526000
N1        0.2048700      0.5158400      0.6586100      -0.3879000
Zn        0.2500000      0.5000000      0.6250000       0.6918000
C1        0.4960500      0.8114800      0.8114800       0.4291000
C2        0.0504300      0.8157500      0.8437500      -0.0839000
H2        0.0705500      0.8111500      0.8617000       0.1128000
C3        0.4572500      0.7969500      0.7969500      -0.4526000
N1        0.0158400      0.7951300      0.8413900      -0.3879000
Zn        0.0000000      0.7500000      0.8750000       0.6918000
C1        0.3114800      0.5039500      0.6885300       0.4291000
C2        0.3157500      0.9495700      0.6562500      -0.0839000
H2        0.3111500      0.9294500      0.6383000       0.1128000
C3        0.2969500      0.5427500      0.7030500      -0.4526000
H3        0.2706500      0.5399000      0.7128500       0.1318667
H3        0.2971000      0.5614000      0.6818000       0.1318667
H3        0.3138000      0.5519500      0.7237500       0.1318667
N1        0.2951300      0.9841600      0.6586100      -0.3879000
C1        0.0039500      0.6885300      0.8114800       0.4291000
C2        0.4495700      0.6842600      0.8437500      -0.0839000
H2        0.4294500      0.6888500      0.8617000       0.1128000
C3        0.0427500      0.7030500      0.7969500      -0.4526000
H3        0.0399000      0.7293500      0.7871500       0.1318667
H3        0.0614000      0.7029000      0.8182000       0.1318667
H3        0.0519500      0.6862000      0.7762500       0.1318667
N1        0.4841600      0.7048700      0.8413900      -0.3879000
C1        0.3114800      0.6885300      0.5039500       0.4291000
C2        0.3437500      0.6842600      0.9495700      -0.0839000
H2        0.3617000      0.6888500      0.9294500       0.1128000
C3        0.2969500      0.7030500      0.5427500      -0.4526000
N1        0.3413900      0.7048700      0.9841600      -0.3879000
Zn        0.3750000      0.7500000      0.5000000       0.6918000
C1        0.1885300      0.6885300      0.9960500       0.4291000
C2        0.1842600      0.6562500      0.5504300      -0.0839000
H2        0.1888500      0.6383000      0.5705500       0.1128000
C3        0.2030500      0.7030500      0.9572500      -0.4526000
H3        0.2293500      0.7128500      0.9601000       0.1318667
H3        0.2029000      0.6818000      0.9386000       0.1318667
H3        0.1862000      0.7237500      0.9480500       0.1318667
N1        0.2048700      0.6586100      0.5158400      -0.3879000
Zn        0.2500000      0.6250000      0.5000000       0.6918000
C1        0.1885300      0.8114800      0.5039500       0.4291000
C2        0.1562500      0.8157500      0.9495700      -0.0839000
H2        0.1383000      0.8111500      0.9294500       0.1128000
C3        0.2030500      0.7969500      0.5427500      -0.4526000
N1        0.1586100      0.7951300      0.9841600      -0.3879000
Zn        0.1250000      0.7500000      0.5000000       0.6918000
C1        0.3114800      0.8114800      0.9960500       0.4291000
C2        0.3157500      0.8437500      0.5504300      -0.0839000
H2        0.3111500      0.8617000      0.5705500       0.1128000
C3        0.2969500      0.7969500      0.9572500      -0.4526000
H3        0.2706500      0.7871500      0.9601000       0.1318667
H3        0.2971000      0.8182000      0.9386000       0.1318667
H3        0.3138000      0.7762500      0.9480500       0.1318667
N1        0.2951300      0.8413900      0.5158400      -0.3879000
Zn        0.2500000      0.8750000      0.5000000       0.6918000
C2        0.3437500      0.8157500      0.5504300      -0.0839000
H2        0.3617000      0.8111500      0.5705500       0.1128000
N1        0.3413900      0.7951300      0.5158400      -0.3879000
C2        0.3157500      0.6562500      0.9495700      -0.0839000
H2        0.3111500      0.6383000      0.9294500       0.1128000
H3        0.2706500      0.7128500      0.5399000       0.1318667
H3        0.2971000      0.6818000      0.5614000       0.1318667
H3        0.3138000      0.7237500      0.5519500       0.1318667
N1        0.2951300      0.6586100      0.9841600      -0.3879000
C2        0.1562500      0.6842600      0.5504300      -0.0839000
H2        0.1383000      0.6888500      0.5705500       0.1128000
N1        0.1586100      0.7048700      0.5158400      -0.3879000
C2        0.1842600      0.8437500      0.9495700      -0.0839000
H2        0.1888500      0.8617000      0.9294500       0.1128000
H3        0.2293500      0.7871500      0.5399000       0.1318667
H3        0.2029000      0.8182000      0.5614000       0.1318667
H3        0.1862000      0.7762500      0.5519500       0.1318667
N1        0.2048700      0.8413900      0.9841600      -0.3879000
C2        0.4495700      0.8437500      0.6842600      -0.0839000
H2        0.4294500      0.8617000      0.6888500       0.1128000
H3        0.0399000      0.7871500      0.7293500       0.1318667
H3        0.0614000      0.8182000      0.7029000       0.1318667
H3        0.0519500      0.7762500      0.6862000       0.1318667
N1        0.4841600      0.8413900      0.7048700      -0.3879000
Zn        0.0000000      0.8750000      0.7500000       0.6918000
C2        0.4495700      0.6562500      0.8157500      -0.0839000
H2        0.4294500      0.6383000      0.8111500       0.1128000
N1        0.4841600      0.6586100      0.7951300      -0.3879000
Zn        0.0000000      0.6250000      0.7500000       0.6918000
C2        0.1562500      0.5504300      0.6842600      -0.0839000
H2        0.1383000      0.5705500      0.6888500       0.1128000
H3        0.2128500      0.9601000      0.7293500       0.1318667
H3        0.1818000      0.9386000      0.7029000       0.1318667
H3        0.2237500      0.9480500      0.6862000       0.1318667
N1        0.1586100      0.5158400      0.7048700      -0.3879000
Zn        0.1250000      0.5000000      0.7500000       0.6918000
C2        0.0504300      0.8437500      0.8157500      -0.0839000
H2        0.0705500      0.8617000      0.8111500       0.1128000
H3        0.4601000      0.7871500      0.7706500       0.1318667
H3        0.4386000      0.8182000      0.7971000       0.1318667
H3        0.4480500      0.7762500      0.8138000       0.1318667
N1        0.0158400      0.8413900      0.7951300      -0.3879000
C2        0.3437500      0.9495700      0.6842600      -0.0839000
H2        0.3617000      0.9294500      0.6888500       0.1128000
N1        0.3413900      0.9841600      0.7048700      -0.3879000
Zn        0.3750000      0.5000000      0.7500000       0.6918000
C2        0.0504300      0.6562500      0.6842600      -0.0839000
H2        0.0705500      0.6383000      0.6888500       0.1128000
N1        0.0158400      0.6586100      0.7048700      -0.3879000
C2        0.1562500      0.9495700      0.8157500      -0.0839000
H2        0.1383000      0.9294500      0.8111500       0.1128000
H3        0.2128500      0.5399000      0.7706500       0.1318667
H3        0.1818000      0.5614000      0.7971000       0.1318667
H3        0.2237500      0.5519500      0.8138000       0.1318667
N1        0.1586100      0.9841600      0.7951300      -0.3879000
C2        0.3437500      0.5504300      0.8157500      -0.0839000
H2        0.3617000      0.5705500      0.8111500       0.1128000
N1        0.3413900      0.5158400      0.7951300      -0.3879000
C1        0.4385300      0.7539500      0.5614700       0.4291000
C2        0.4342500      0.6995700      0.5937500      -0.0839000
H2        0.4388500      0.6794500      0.6117000       0.1128000
C3        0.4530500      0.7927500      0.5469500      -0.4526000
H3        0.4793500      0.7899000      0.5371500       0.1318667
H3        0.4529000      0.8114000      0.5682000       0.1318667
H3        0.4362000      0.8019500      0.5262500       0.1318667
N1        0.4548600      0.7341600      0.5913900      -0.3879000
C1        0.2539500      0.5614700      0.9385300       0.4291000
C2        0.1995700      0.5657500      0.9062500      -0.0839000
H2        0.1794500      0.5611500      0.8883000       0.1128000
C3        0.2927500      0.5469500      0.9530500      -0.4526000
N1        0.2341600      0.5451400      0.9086100      -0.3879000
C1        0.0614700      0.7460500      0.5614700       0.4291000
C2        0.0657500      0.8004300      0.5937500      -0.0839000
H2        0.0611500      0.8205500      0.6117000       0.1128000
C3        0.0469500      0.7072500      0.5469500      -0.4526000
H3        0.0206500      0.7101000      0.5371500       0.1318667
H3        0.0471000      0.6886000      0.5682000       0.1318667
H3        0.0638000      0.6980500      0.5262500       0.1318667
N1        0.0451400      0.7658400      0.5913900      -0.3879000
C1        0.2460500      0.9385300      0.9385300       0.4291000
C2        0.3004300      0.9342500      0.9062500      -0.0839000
H2        0.3205500      0.9388500      0.8883000       0.1128000
C3        0.2072500      0.9530500      0.9530500      -0.4526000
H3        0.2101000      0.9793500      0.9628500       0.1318667
H3        0.1886000      0.9529000      0.9318000       0.1318667
H3        0.1980500      0.9362000      0.9737500       0.1318667
N1        0.2658400      0.9548700      0.9086100      -0.3879000
C1        0.4385300      0.7460500      0.9385300       0.4291000
C2        0.4342500      0.8004300      0.9062500      -0.0839000
H2        0.4388500      0.8205500      0.8883000       0.1128000
C3        0.4530500      0.7072500      0.9530500      -0.4526000
H3        0.4793500      0.7101000      0.9628500       0.1318667
H3        0.4529000      0.6886000      0.9318000       0.1318667
H3        0.4362000      0.6980500      0.9737500       0.1318667
N1        0.4548600      0.7658400      0.9086100      -0.3879000
C1        0.2460500      0.5614700      0.5614700       0.4291000
C2        0.3004300      0.5657500      0.5937500      -0.0839000
H2        0.3205500      0.5611500      0.6117000       0.1128000
C3        0.2072500      0.5469500      0.5469500      -0.4526000
N1        0.2658400      0.5451400      0.5913900      -0.3879000
C1        0.0614700      0.7539500      0.9385300       0.4291000
C2        0.0657500      0.6995700      0.9062500      -0.0839000
H2        0.0611500      0.6794500      0.8883000       0.1128000
C3        0.0469500      0.7927500      0.9530500      -0.4526000
N1        0.0451400      0.7341600      0.9086100      -0.3879000
C1        0.2539500      0.9385300      0.5614700       0.4291000
C2        0.1995700      0.9342500      0.5937500      -0.0839000
H2        0.1794500      0.9388500      0.6117000       0.1128000
C3        0.2927500      0.9530500      0.5469500      -0.4526000
N1        0.2341600      0.9548700      0.5913900      -0.3879000
C1        0.0614700      0.9385300      0.7539500       0.4291000
C2        0.0937500      0.9342500      0.6995700      -0.0839000
H2        0.1117000      0.9388500      0.6794500       0.1128000
C3        0.0469500      0.9530500      0.7927500      -0.4526000
N1        0.0913900      0.9548700      0.7341600      -0.3879000
C1        0.4385300      0.9385300      0.7460500       0.4291000
C2        0.4342500      0.9062500      0.8004300      -0.0839000
H2        0.4388500      0.8883000      0.8205500       0.1128000
C3        0.4530500      0.9530500      0.7072500      -0.4526000
H3        0.4793500      0.9628500      0.7101000       0.1318667
H3        0.4529000      0.9318000      0.6886000       0.1318667
H3        0.4362000      0.9737500      0.6980500       0.1318667
N1        0.4548600      0.9086100      0.7658400      -0.3879000
C1        0.4385300      0.5614700      0.7539500       0.4291000
C2        0.4062500      0.5657500      0.6995700      -0.0839000
H2        0.3883000      0.5611500      0.6794500       0.1128000
C3        0.4530500      0.5469500      0.7927500      -0.4526000
N1        0.4086100      0.5451400      0.7341600      -0.3879000
C1        0.0614700      0.5614700      0.7460500       0.4291000
C2        0.0657500      0.5937500      0.8004300      -0.0839000
H2        0.0611500      0.6117000      0.8205500       0.1128000
C3        0.0469500      0.5469500      0.7072500      -0.4526000
H3        0.0206500      0.5371500      0.7101000       0.1318667
H3        0.0471000      0.5682000      0.6886000       0.1318667
H3        0.0638000      0.5262500      0.6980500       0.1318667
N1        0.0451400      0.5913900      0.7658400      -0.3879000
C2        0.0937500      0.5657500      0.8004300      -0.0839000
H2        0.1117000      0.5611500      0.8205500       0.1128000
N1        0.0913900      0.5451400      0.7658400      -0.3879000
C2        0.0657500      0.9062500      0.6995700      -0.0839000
H2        0.0611500      0.8883000      0.6794500       0.1128000
H3        0.0206500      0.9628500      0.7899000       0.1318667
H3        0.0471000      0.9318000      0.8114000       0.1318667
H3        0.0638000      0.9737500      0.8019500       0.1318667
N1        0.0451400      0.9086100      0.7341600      -0.3879000
C2        0.4062500      0.9342500      0.8004300      -0.0839000
H2        0.3883000      0.9388500      0.8205500       0.1128000
N1        0.4086100      0.9548700      0.7658400      -0.3879000
C2        0.4342500      0.5937500      0.6995700      -0.0839000
H2        0.4388500      0.6117000      0.6794500       0.1128000
H3        0.4793500      0.5371500      0.7899000       0.1318667
H3        0.4529000      0.5682000      0.8114000       0.1318667
H3        0.4362000      0.5262500      0.8019500       0.1318667
N1        0.4548600      0.5913900      0.7341600      -0.3879000
C2        0.1995700      0.5937500      0.9342500      -0.0839000
H2        0.1794500      0.6117000      0.9388500       0.1128000
H3        0.2899000      0.5371500      0.9793500       0.1318667
H3        0.3114000      0.5682000      0.9529000       0.1318667
H3        0.3019500      0.5262500      0.9362000       0.1318667
N1        0.2341600      0.5913900      0.9548700      -0.3879000
C2        0.1995700      0.9062500      0.5657500      -0.0839000
H2        0.1794500      0.8883000      0.5611500       0.1128000
H3        0.2899000      0.9628500      0.5206500       0.1318667
H3        0.3114000      0.9318000      0.5471000       0.1318667
H3        0.3019500      0.9737500      0.5638000       0.1318667
N1        0.2341600      0.9086100      0.5451400      -0.3879000
C2        0.4062500      0.8004300      0.9342500      -0.0839000
H2        0.3883000      0.8205500      0.9388500       0.1128000
N1        0.4086100      0.7658400      0.9548700      -0.3879000
C2        0.3004300      0.5937500      0.5657500      -0.0839000
H2        0.3205500      0.6117000      0.5611500       0.1128000
H3        0.2101000      0.5371500      0.5206500       0.1318667
H3        0.1886000      0.5682000      0.5471000       0.1318667
H3        0.1980500      0.5262500      0.5638000       0.1318667
N1        0.2658400      0.5913900      0.5451400      -0.3879000
C2        0.0937500      0.6995700      0.9342500      -0.0839000
H2        0.1117000      0.6794500      0.9388500       0.1128000
H3        0.0371500      0.7899000      0.9793500       0.1318667
H3        0.0682000      0.8114000      0.9529000       0.1318667
H3        0.0262500      0.8019500      0.9362000       0.1318667
N1        0.0913900      0.7341600      0.9548700      -0.3879000
C2        0.3004300      0.9062500      0.9342500      -0.0839000
H2        0.3205500      0.8883000      0.9388500       0.1128000
N1        0.2658400      0.9086100      0.9548700      -0.3879000
C2        0.4062500      0.6995700      0.5657500      -0.0839000
H2        0.3883000      0.6794500      0.5611500       0.1128000
N1        0.4086100      0.7341600      0.5451400      -0.3879000
C2        0.0937500      0.8004300      0.5657500      -0.0839000
H2        0.1117000      0.8205500      0.5611500       0.1128000
N1        0.0913900      0.7658400      0.5451400      -0.3879000
C1        0.6885300      0.5039500      0.8114800       0.4291000
C2        0.6842600      0.9495700      0.8437500      -0.0839000
H2        0.6888500      0.9294500      0.8617000       0.1128000
C3        0.7030500      0.5427500      0.7969500      -0.4526000
N1        0.7048700      0.9841600      0.8413900      -0.3879000
Zn        0.7500000      0.5000000      0.8750000       0.6918000
C1        0.5039500      0.8114800      0.6885300       0.4291000
C2        0.9495700      0.8157500      0.6562500      -0.0839000
H2        0.9294500      0.8111500      0.6383000       0.1128000
C3        0.5427500      0.7969500      0.7030500      -0.4526000
N1        0.9841600      0.7951300      0.6586100      -0.3879000
Zn        0.5000000      0.7500000      0.6250000       0.6918000
C1        0.8114800      0.9960500      0.8114800       0.4291000
C2        0.8157500      0.5504300      0.8437500      -0.0839000
H2        0.8111500      0.5705500      0.8617000       0.1128000
C3        0.7969500      0.9572500      0.7969500      -0.4526000
H3        0.7706500      0.9601000      0.7871500       0.1318667
H3        0.7971000      0.9386000      0.8182000       0.1318667
H3        0.8138000      0.9480500      0.7762500       0.1318667
N1        0.7951300      0.5158400      0.8413900      -0.3879000
C1        0.9960500      0.6885300      0.6885300       0.4291000
C2        0.5504300      0.6842600      0.6562500      -0.0839000
H2        0.5705500      0.6888500      0.6383000       0.1128000
C3        0.9572500      0.7030500      0.7030500      -0.4526000
H3        0.9601000      0.7293500      0.7128500       0.1318667
H3        0.9386000      0.7029000      0.6818000       0.1318667
H3        0.9480500      0.6862000      0.7237500       0.1318667
N1        0.5158400      0.7048700      0.6586100      -0.3879000
C1        0.6885300      0.9960500      0.6885300       0.4291000
C2        0.6842600      0.5504300      0.6562500      -0.0839000
H2        0.6888500      0.5705500      0.6383000       0.1128000
C3        0.7030500      0.9572500      0.7030500      -0.4526000
N1        0.7048700      0.5158400      0.6586100      -0.3879000
Zn        0.7500000      0.5000000      0.6250000       0.6918000
C1        0.9960500      0.8114800      0.8114800       0.4291000
C2        0.5504300      0.8157500      0.8437500      -0.0839000
H2        0.5705500      0.8111500      0.8617000       0.1128000
C3        0.9572500      0.7969500      0.7969500      -0.4526000
N1        0.5158400      0.7951300      0.8413900      -0.3879000
Zn        0.5000000      0.7500000      0.8750000       0.6918000
C1        0.8114800      0.5039500      0.6885300       0.4291000
C2        0.8157500      0.9495700      0.6562500      -0.0839000
H2        0.8111500      0.9294500      0.6383000       0.1128000
C3        0.7969500      0.5427500      0.7030500      -0.4526000
H3        0.7706500      0.5399000      0.7128500       0.1318667
H3        0.7971000      0.5614000      0.6818000       0.1318667
H3        0.8138000      0.5519500      0.7237500       0.1318667
N1        0.7951300      0.9841600      0.6586100      -0.3879000
C1        0.5039500      0.6885300      0.8114800       0.4291000
C2        0.9495700      0.6842600      0.8437500      -0.0839000
H2        0.9294500      0.6888500      0.8617000       0.1128000
C3        0.5427500      0.7030500      0.7969500      -0.4526000
H3        0.5399000      0.7293500      0.7871500       0.1318667
H3        0.5614000      0.7029000      0.8182000       0.1318667
H3        0.5519500      0.6862000      0.7762500       0.1318667
N1        0.9841600      0.7048700      0.8413900      -0.3879000
C1        0.8114800      0.6885300      0.5039500       0.4291000
C2        0.8437500      0.6842600      0.9495700      -0.0839000
H2        0.8617000      0.6888500      0.9294500       0.1128000
C3        0.7969500      0.7030500      0.5427500      -0.4526000
N1        0.8413900      0.7048700      0.9841600      -0.3879000
Zn        0.8750000      0.7500000      0.5000000       0.6918000
C1        0.6885300      0.6885300      0.9960500       0.4291000
C2        0.6842600      0.6562500      0.5504300      -0.0839000
H2        0.6888500      0.6383000      0.5705500       0.1128000
C3        0.7030500      0.7030500      0.9572500      -0.4526000
H3        0.7293500      0.7128500      0.9601000       0.1318667
H3        0.7029000      0.6818000      0.9386000       0.1318667
H3        0.6862000      0.7237500      0.9480500       0.1318667
N1        0.7048700      0.6586100      0.5158400      -0.3879000
Zn        0.7500000      0.6250000      0.5000000       0.6918000
C1        0.6885300      0.8114800      0.5039500       0.4291000
C2        0.6562500      0.8157500      0.9495700      -0.0839000
H2        0.6383000      0.8111500      0.9294500       0.1128000
C3        0.7030500      0.7969500      0.5427500      -0.4526000
N1        0.6586100      0.7951300      0.9841600      -0.3879000
Zn        0.6250000      0.7500000      0.5000000       0.6918000
C1        0.8114800      0.8114800      0.9960500       0.4291000
C2        0.8157500      0.8437500      0.5504300      -0.0839000
H2        0.8111500      0.8617000      0.5705500       0.1128000
C3        0.7969500      0.7969500      0.9572500      -0.4526000
H3        0.7706500      0.7871500      0.9601000       0.1318667
H3        0.7971000      0.8182000      0.9386000       0.1318667
H3        0.8138000      0.7762500      0.9480500       0.1318667
N1        0.7951300      0.8413900      0.5158400      -0.3879000
Zn        0.7500000      0.8750000      0.5000000       0.6918000
C2        0.8437500      0.8157500      0.5504300      -0.0839000
H2        0.8617000      0.8111500      0.5705500       0.1128000
N1        0.8413900      0.7951300      0.5158400      -0.3879000
C2        0.8157500      0.6562500      0.9495700      -0.0839000
H2        0.8111500      0.6383000      0.9294500       0.1128000
H3        0.7706500      0.7128500      0.5399000       0.1318667
H3        0.7971000      0.6818000      0.5614000       0.1318667
H3        0.8138000      0.7237500      0.5519500       0.1318667
N1        0.7951300      0.6586100      0.9841600      -0.3879000
C2        0.6562500      0.6842600      0.5504300      -0.0839000
H2        0.6383000      0.6888500      0.5705500       0.1128000
N1        0.6586100      0.7048700      0.5158400      -0.3879000
C2        0.6842600      0.8437500      0.9495700      -0.0839000
H2        0.6888500      0.8617000      0.9294500       0.1128000
H3        0.7293500      0.7871500      0.5399000       0.1318667
H3        0.7029000      0.8182000      0.5614000       0.1318667
H3        0.6862000      0.7762500      0.5519500       0.1318667
N1        0.7048700      0.8413900      0.9841600      -0.3879000
C2        0.9495700      0.8437500      0.6842600      -0.0839000
H2        0.9294500      0.8617000      0.6888500       0.1128000
H3        0.5399000      0.7871500      0.7293500       0.1318667
H3        0.5614000      0.8182000      0.7029000       0.1318667
H3        0.5519500      0.7762500      0.6862000       0.1318667
N1        0.9841600      0.8413900      0.7048700      -0.3879000
Zn        0.5000000      0.8750000      0.7500000       0.6918000
C2        0.9495700      0.6562500      0.8157500      -0.0839000
H2        0.9294500      0.6383000      0.8111500       0.1128000
N1        0.9841600      0.6586100      0.7951300      -0.3879000
Zn        0.5000000      0.6250000      0.7500000       0.6918000
C2        0.6562500      0.5504300      0.6842600      -0.0839000
H2        0.6383000      0.5705500      0.6888500       0.1128000
H3        0.7128500      0.9601000      0.7293500       0.1318667
H3        0.6818000      0.9386000      0.7029000       0.1318667
H3        0.7237500      0.9480500      0.6862000       0.1318667
N1        0.6586100      0.5158400      0.7048700      -0.3879000
Zn        0.6250000      0.5000000      0.7500000       0.6918000
C2        0.5504300      0.8437500      0.8157500      -0.0839000
H2        0.5705500      0.8617000      0.8111500       0.1128000
H3        0.9601000      0.7871500      0.7706500       0.1318667
H3        0.9386000      0.8182000      0.7971000       0.1318667
H3        0.9480500      0.7762500      0.8138000       0.1318667
N1        0.5158400      0.8413900      0.7951300      -0.3879000
C2        0.8437500      0.9495700      0.6842600      -0.0839000
H2        0.8617000      0.9294500      0.6888500       0.1128000
N1        0.8413900      0.9841600      0.7048700      -0.3879000
Zn        0.8750000      0.5000000      0.7500000       0.6918000
C2        0.5504300      0.6562500      0.6842600      -0.0839000
H2        0.5705500      0.6383000      0.6888500       0.1128000
N1        0.5158400      0.6586100      0.7048700      -0.3879000
C2        0.6562500      0.9495700      0.8157500      -0.0839000
H2        0.6383000      0.9294500      0.8111500       0.1128000
H3        0.7128500      0.5399000      0.7706500       0.1318667
H3        0.6818000      0.5614000      0.7971000       0.1318667
H3        0.7237500      0.5519500      0.8138000       0.1318667
N1        0.6586100      0.9841600      0.7951300      -0.3879000
C2        0.8437500      0.5504300      0.8157500      -0.0839000
H2        0.8617000      0.5705500      0.8111500       0.1128000
N1        0.8413900      0.5158400      0.7951300      -0.3879000
C1        0.9385300      0.7539500      0.5614700       0.4291000
C2        0.9342500      0.6995700      0.5937500      -0.0839000
H2        0.9388500      0.6794500      0.6117000       0.1128000
C3        0.9530500      0.7927500      0.5469500      -0.4526000
H3        0.9793500      0.7899000      0.5371500       0.1318667
H3        0.9529000      0.8114000      0.5682000       0.1318667
H3        0.9362000      0.8019500      0.5262500       0.1318667
N1        0.9548700      0.7341600      0.5913900      -0.3879000
C1        0.7539500      0.5614700      0.9385300       0.4291000
C2        0.6995700      0.5657500      0.9062500      -0.0839000
H2        0.6794500      0.5611500      0.8883000       0.1128000
C3        0.7927500      0.5469500      0.9530500      -0.4526000
N1        0.7341600      0.5451400      0.9086100      -0.3879000
C1        0.5614700      0.7460500      0.5614700       0.4291000
C2        0.5657500      0.8004300      0.5937500      -0.0839000
H2        0.5611500      0.8205500      0.6117000       0.1128000
C3        0.5469500      0.7072500      0.5469500      -0.4526000
H3        0.5206500      0.7101000      0.5371500       0.1318667
H3        0.5471000      0.6886000      0.5682000       0.1318667
H3        0.5638000      0.6980500      0.5262500       0.1318667
N1        0.5451400      0.7658400      0.5913900      -0.3879000
C1        0.7460500      0.9385300      0.9385300       0.4291000
C2        0.8004300      0.9342500      0.9062500      -0.0839000
H2        0.8205500      0.9388500      0.8883000       0.1128000
C3        0.7072500      0.9530500      0.9530500      -0.4526000
H3        0.7101000      0.9793500      0.9628500       0.1318667
H3        0.6886000      0.9529000      0.9318000       0.1318667
H3        0.6980500      0.9362000      0.9737500       0.1318667
N1        0.7658400      0.9548700      0.9086100      -0.3879000
C1        0.9385300      0.7460500      0.9385300       0.4291000
C2        0.9342500      0.8004300      0.9062500      -0.0839000
H2        0.9388500      0.8205500      0.8883000       0.1128000
C3        0.9530500      0.7072500      0.9530500      -0.4526000
H3        0.9793500      0.7101000      0.9628500       0.1318667
H3        0.9529000      0.6886000      0.9318000       0.1318667
H3        0.9362000      0.6980500      0.9737500       0.1318667
N1        0.9548700      0.7658400      0.9086100      -0.3879000
C1        0.7460500      0.5614700      0.5614700       0.4291000
C2        0.8004300      0.5657500      0.5937500      -0.0839000
H2        0.8205500      0.5611500      0.6117000       0.1128000
C3        0.7072500      0.5469500      0.5469500      -0.4526000
N1        0.7658400      0.5451400      0.5913900      -0.3879000
C1        0.5614700      0.7539500      0.9385300       0.4291000
C2        0.5657500      0.6995700      0.9062500      -0.0839000
H2        0.5611500      0.6794500      0.8883000       0.1128000
C3        0.5469500      0.7927500      0.9530500      -0.4526000
N1        0.5451400      0.7341600      0.9086100      -0.3879000
C1        0.7539500      0.9385300      0.5614700       0.4291000
C2        0.6995700      0.9342500      0.5937500      -0.0839000
H2        0.6794500      0.9388500      0.6117000       0.1128000
C3        0.7927500      0.9530500      0.5469500      -0.4526000
N1        0.7341600      0.9548700      0.5913900      -0.3879000
C1        0.5614700      0.9385300      0.7539500       0.4291000
C2        0.5937500      0.9342500      0.6995700      -0.0839000
H2        0.6117000      0.9388500      0.6794500       0.1128000
C3        0.5469500      0.9530500      0.7927500      -0.4526000
N1        0.5913900      0.9548700      0.7341600      -0.3879000
C1        0.9385300      0.9385300      0.7460500       0.4291000
C2        0.9342500      0.9062500      0.8004300      -0.0839000
H2        0.9388500      0.8883000      0.8205500       0.1128000
C3        0.9530500      0.9530500      0.7072500      -0.4526000
H3        0.9793500      0.9628500      0.7101000       0.1318667
H3        0.9529000      0.9318000      0.6886000       0.1318667
H3        0.9362000      0.9737500      0.6980500       0.1318667
N1        0.9548700      0.9086100      0.7658400      -0.3879000
C1        0.9385300      0.5614700      0.7539500       0.4291000
C2        0.9062500      0.5657500      0.6995700      -0.0839000
H2        0.8883000      0.5611500      0.6794500       0.1128000
C3        0.9530500      0.5469500      0.7927500      -0.4526000
N1        0.9086100      0.5451400      0.7341600      -0.3879000
C1        0.5614700      0.5614700      0.7460500       0.4291000
C2        0.5657500      0.5937500      0.8004300      -0.0839000
H2        0.5611500      0.6117000      0.8205500       0.1128000
C3        0.5469500      0.5469500      0.7072500      -0.4526000
H3        0.5206500      0.5371500      0.7101000       0.1318667
H3        0.5471000      0.5682000      0.6886000       0.1318667
H3        0.5638000      0.5262500      0.6980500       0.1318667
N1        0.5451400      0.5913900      0.7658400      -0.3879000
C2        0.5937500      0.5657500      0.8004300      -0.0839000
H2        0.6117000      0.5611500      0.8205500       0.1128000
N1        0.5913900      0.5451400      0.7658400      -0.3879000
C2        0.5657500      0.9062500      0.6995700      -0.0839000
H2        0.5611500      0.8883000      0.6794500       0.1128000
H3        0.5206500      0.9628500      0.7899000       0.1318667
H3        0.5471000      0.9318000      0.8114000       0.1318667
H3        0.5638000      0.9737500      0.8019500       0.1318667
N1        0.5451400      0.9086100      0.7341600      -0.3879000
C2        0.9062500      0.9342500      0.8004300      -0.0839000
H2        0.8883000      0.9388500      0.8205500       0.1128000
N1        0.9086100      0.9548700      0.7658400      -0.3879000
C2        0.9342500      0.5937500      0.6995700      -0.0839000
H2        0.9388500      0.6117000      0.6794500       0.1128000
H3        0.9793500      0.5371500      0.7899000       0.1318667
H3        0.9529000      0.5682000      0.8114000       0.1318667
H3        0.9362000      0.5262500      0.8019500       0.1318667
N1        0.9548700      0.5913900      0.7341600      -0.3879000
C2        0.6995700      0.5937500      0.9342500      -0.0839000
H2        0.6794500      0.6117000      0.9388500       0.1128000
H3        0.7899000      0.5371500      0.9793500       0.1318667
H3        0.8114000      0.5682000      0.9529000       0.1318667
H3        0.8019500      0.5262500      0.9362000       0.1318667
N1        0.7341600      0.5913900      0.9548700      -0.3879000
C2        0.6995700      0.9062500      0.5657500      -0.0839000
H2        0.6794500      0.8883000      0.5611500       0.1128000
H3        0.7899000      0.9628500      0.5206500       0.1318667
H3        0.8114000      0.9318000      0.5471000       0.1318667
H3        0.8019500      0.9737500      0.5638000       0.1318667
N1        0.7341600      0.9086100      0.5451400      -0.3879000
C2        0.9062500      0.8004300      0.9342500      -0.0839000
H2        0.8883000      0.8205500      0.9388500       0.1128000
N1        0.9086100      0.7658400      0.9548700      -0.3879000
C2        0.8004300      0.5937500      0.5657500      -0.0839000
H2        0.8205500      0.6117000      0.5611500       0.1128000
H3        0.7101000      0.5371500      0.5206500       0.1318667
H3        0.6886000      0.5682000      0.5471000       0.1318667
H3        0.6980500      0.5262500      0.5638000       0.1318667
N1        0.7658400      0.5913900      0.5451400      -0.3879000
C2        0.5937500      0.6995700      0.9342500      -0.0839000
H2        0.6117000      0.6794500      0.9388500       0.1128000
H3        0.5371500      0.7899000      0.9793500       0.1318667
H3        0.5682000      0.8114000      0.9529000       0.1318667
H3        0.5262500      0.8019500      0.9362000       0.1318667
N1        0.5913900      0.7341600      0.9548700      -0.3879000
C2        0.8004300      0.9062500      0.9342500      -0.0839000
H2        0.8205500      0.8883000      0.9388500       0.1128000
N1        0.7658400      0.9086100      0.9548700      -0.3879000
C2        0.9062500      0.6995700      0.5657500      -0.0839000
H2        0.8883000      0.6794500      0.5611500       0.1128000
N1        0.9086100      0.7341600      0.5451400      -0.3879000
C2        0.5937500      0.8004300      0.5657500      -0.0839000
H2        0.6117000      0.8205500      0.5611500       0.1128000
N1        0.5913900      0.7658400      0.5451400      -0.3879000
