data_ZIF-8
_audit_creation_date              2017-11-09
_audit_creation_method            'Materials Studio'
_symmetry_space_group_name_H-M    'P1'
_symmetry_Int_Tables_number       1
_symmetry_cell_setting            triclinic
loop_
_symmetry_equiv_pos_as_xyz
  x,y,z
_cell_length_a                    33.9820
_cell_length_b                    33.9820
_cell_length_c                    33.9820
_cell_angle_alpha                 90.0000
_cell_angle_beta                  90.0000
_cell_angle_gamma                 90.0000
loop_
_atom_site_label
_atom_site_fract_x
_atom_site_fract_y
_atom_site_fract_z
C     0.18853   0.00395   0.31148 
C     0.18426   0.44957   0.34375 
H     0.18885   0.42945   0.36170 
C     0.20305   0.04275   0.29695 
N     0.20487   0.48416   0.34139 
Zn    0.25000   0.00000   0.37500 
C     0.00395   0.31148   0.18853 
C     0.44957   0.31575   0.15625 
H     0.42945   0.31115   0.13830 
C     0.04275   0.29695   0.20305 
N     0.48416   0.29513   0.15861 
Zn    0.00000   0.25000   0.12500 
C     0.31148   0.49605   0.31148 
C     0.31575   0.05043   0.34375 
H     0.31115   0.07055   0.36170 
C     0.29695   0.45725   0.29695 
H     0.27065   0.46010   0.28715 
H     0.29710   0.43860   0.31820 
H     0.31380   0.44805   0.27625 
N     0.29513   0.01584   0.34139 
C     0.49605   0.18853   0.18853 
C     0.05043   0.18426   0.15625 
H     0.07055   0.18885   0.13830 
C     0.45725   0.20305   0.20305 
H     0.46010   0.22935   0.21285 
H     0.43860   0.20290   0.18180 
H     0.44805   0.18620   0.22375 
N     0.01584   0.20487   0.15861 
C     0.18853   0.49605   0.18853 
C     0.18426   0.05043   0.15625 
H     0.18885   0.07055   0.13830 
C     0.20305   0.45725   0.20305 
N     0.20487   0.01584   0.15861 
Zn    0.25000   0.00000   0.12500 
C     0.49605   0.31148   0.31148 
C     0.05043   0.31575   0.34375 
H     0.07055   0.31115   0.36170 
C     0.45725   0.29695   0.29695 
N     0.01584   0.29513   0.34139 
Zn    0.00000   0.25000   0.37500 
C     0.31148   0.00395   0.18853 
C     0.31575   0.44957   0.15625 
H     0.31115   0.42945   0.13830 
C     0.29695   0.04275   0.20305 
H     0.27065   0.03990   0.21285 
H     0.29710   0.06140   0.18180 
H     0.31380   0.05195   0.22375 
N     0.29513   0.48416   0.15861 
C     0.00395   0.18853   0.31148 
C     0.44957   0.18426   0.34375 
H     0.42945   0.18885   0.36170 
C     0.04275   0.20305   0.29695 
H     0.03990   0.22935   0.28715 
H     0.06140   0.20290   0.31820 
H     0.05195   0.18620   0.27625 
N     0.48416   0.20487   0.34139 
C     0.31148   0.18853   0.00395 
C     0.34375   0.18426   0.44957 
H     0.36170   0.18885   0.42945 
C     0.29695   0.20305   0.04275 
N     0.34139   0.20487   0.48416 
Zn    0.37500   0.25000   0.00000 
C     0.18853   0.18853   0.49605 
C     0.18426   0.15625   0.05043 
H     0.18885   0.13830   0.07055 
C     0.20305   0.20305   0.45725 
H     0.22935   0.21285   0.46010 
H     0.20290   0.18180   0.43860 
H     0.18620   0.22375   0.44805 
N     0.20487   0.15861   0.01584 
Zn    0.25000   0.12500   0.00000 
C     0.18853   0.31148   0.00395 
C     0.15625   0.31575   0.44957 
H     0.13830   0.31115   0.42945 
C     0.20305   0.29695   0.04275 
N     0.15861   0.29513   0.48416 
Zn    0.12500   0.25000   0.00000 
C     0.31148   0.31148   0.49605 
C     0.31575   0.34375   0.05043 
H     0.31115   0.36170   0.07055 
C     0.29695   0.29695   0.45725 
H     0.27065   0.28715   0.46010 
H     0.29710   0.31820   0.43860 
H     0.31380   0.27625   0.44805 
N     0.29513   0.34139   0.01584 
Zn    0.25000   0.37500   0.00000 
C     0.34375   0.31575   0.05043 
H     0.36170   0.31115   0.07055 
N     0.34139   0.29513   0.01584 
C     0.31575   0.15625   0.44957 
H     0.31115   0.13830   0.42945 
H     0.27065   0.21285   0.03990 
H     0.29710   0.18180   0.06140 
H     0.31380   0.22375   0.05195 
N     0.29513   0.15861   0.48416 
C     0.15625   0.18426   0.05043 
H     0.13830   0.18885   0.07055 
N     0.15861   0.20487   0.01584 
C     0.18426   0.34375   0.44957 
H     0.18885   0.36170   0.42945 
H     0.22935   0.28715   0.03990 
H     0.20290   0.31820   0.06140 
H     0.18620   0.27625   0.05195 
N     0.20487   0.34139   0.48416 
C     0.44957   0.34375   0.18426 
H     0.42945   0.36170   0.18885 
H     0.03990   0.28715   0.22935 
H     0.06140   0.31820   0.20290 
H     0.05195   0.27625   0.18620 
N     0.48416   0.34139   0.20487 
Zn    0.00000   0.37500   0.25000 
C     0.44957   0.15625   0.31575 
H     0.42945   0.13830   0.31115 
N     0.48416   0.15861   0.29513 
Zn    0.00000   0.12500   0.25000 
C     0.15625   0.05043   0.18426 
H     0.13830   0.07055   0.18885 
H     0.21285   0.46010   0.22935 
H     0.18180   0.43860   0.20290 
H     0.22375   0.44805   0.18620 
N     0.15861   0.01584   0.20487 
Zn    0.12500   0.00000   0.25000 
C     0.05043   0.34375   0.31575 
H     0.07055   0.36170   0.31115 
H     0.46010   0.28715   0.27065 
H     0.43860   0.31820   0.29710 
H     0.44805   0.27625   0.31380 
N     0.01584   0.34139   0.29513 
C     0.34375   0.44957   0.18426 
H     0.36170   0.42945   0.18885 
N     0.34139   0.48416   0.20487 
Zn    0.37500   0.00000   0.25000 
C     0.05043   0.15625   0.18426 
H     0.07055   0.13830   0.18885 
N     0.01584   0.15861   0.20487 
C     0.15625   0.44957   0.31575 
H     0.13830   0.42945   0.31115 
H     0.21285   0.03990   0.27065 
H     0.18180   0.06140   0.29710 
H     0.22375   0.05195   0.31380 
N     0.15861   0.48416   0.29513 
C     0.34375   0.05043   0.31575 
H     0.36170   0.07055   0.31115 
N     0.34139   0.01584   0.29513 
C     0.43853   0.25395   0.06147 
C     0.43425   0.19957   0.09375 
H     0.43885   0.17945   0.11170 
C     0.45305   0.29275   0.04695 
H     0.47935   0.28990   0.03715 
H     0.45290   0.31140   0.06820 
H     0.43620   0.30195   0.02625 
N     0.45486   0.23416   0.09139 
C     0.25395   0.06147   0.43853 
C     0.19957   0.06575   0.40625 
H     0.17945   0.06115   0.38830 
C     0.29275   0.04695   0.45305 
N     0.23416   0.04514   0.40861 
C     0.06147   0.24605   0.06147 
C     0.06575   0.30043   0.09375 
H     0.06115   0.32055   0.11170 
C     0.04695   0.20725   0.04695 
H     0.02065   0.21010   0.03715 
H     0.04710   0.18860   0.06820 
H     0.06380   0.19805   0.02625 
N     0.04514   0.26584   0.09139 
C     0.24605   0.43853   0.43853 
C     0.30043   0.43425   0.40625 
H     0.32055   0.43885   0.38830 
C     0.20725   0.45305   0.45305 
H     0.21010   0.47935   0.46285 
H     0.18860   0.45290   0.43180 
H     0.19805   0.43620   0.47375 
N     0.26584   0.45486   0.40861 
C     0.43853   0.24605   0.43853 
C     0.43425   0.30043   0.40625 
H     0.43885   0.32055   0.38830 
C     0.45305   0.20725   0.45305 
H     0.47935   0.21010   0.46285 
H     0.45290   0.18860   0.43180 
H     0.43620   0.19805   0.47375 
N     0.45486   0.26584   0.40861 
C     0.24605   0.06147   0.06147 
C     0.30043   0.06575   0.09375 
H     0.32055   0.06115   0.11170 
C     0.20725   0.04695   0.04695 
N     0.26584   0.04514   0.09139 
C     0.06147   0.25395   0.43853 
C     0.06575   0.19957   0.40625 
H     0.06115   0.17945   0.38830 
C     0.04695   0.29275   0.45305 
N     0.04514   0.23416   0.40861 
C     0.25395   0.43853   0.06147 
C     0.19957   0.43425   0.09375 
H     0.17945   0.43885   0.11170 
C     0.29275   0.45305   0.04695 
N     0.23416   0.45486   0.09139 
C     0.06147   0.43853   0.25395 
C     0.09375   0.43425   0.19957 
H     0.11170   0.43885   0.17945 
C     0.04695   0.45305   0.29275 
N     0.09139   0.45486   0.23416 
C     0.43853   0.43853   0.24605 
C     0.43425   0.40625   0.30043 
H     0.43885   0.38830   0.32055 
C     0.45305   0.45305   0.20725 
H     0.47935   0.46285   0.21010 
H     0.45290   0.43180   0.18860 
H     0.43620   0.47375   0.19805 
N     0.45486   0.40861   0.26584 
C     0.43853   0.06147   0.25395 
C     0.40625   0.06575   0.19957 
H     0.38830   0.06115   0.17945 
C     0.45305   0.04695   0.29275 
N     0.40861   0.04514   0.23416 
C     0.06147   0.06147   0.24605 
C     0.06575   0.09375   0.30043 
H     0.06115   0.11170   0.32055 
C     0.04695   0.04695   0.20725 
H     0.02065   0.03715   0.21010 
H     0.04710   0.06820   0.18860 
H     0.06380   0.02625   0.19805 
N     0.04514   0.09139   0.26584 
C     0.09375   0.06575   0.30043 
H     0.11170   0.06115   0.32055 
N     0.09139   0.04514   0.26584 
C     0.06575   0.40625   0.19957 
H     0.06115   0.38830   0.17945 
H     0.02065   0.46285   0.28990 
H     0.04710   0.43180   0.31140 
H     0.06380   0.47375   0.30195 
N     0.04514   0.40861   0.23416 
C     0.40625   0.43425   0.30043 
H     0.38830   0.43885   0.32055 
N     0.40861   0.45486   0.26584 
C     0.43425   0.09375   0.19957 
H     0.43885   0.11170   0.17945 
H     0.47935   0.03715   0.28990 
H     0.45290   0.06820   0.31140 
H     0.43620   0.02625   0.30195 
N     0.45486   0.09139   0.23416 
C     0.19957   0.09375   0.43425 
H     0.17945   0.11170   0.43885 
H     0.28990   0.03715   0.47935 
H     0.31140   0.06820   0.45290 
H     0.30195   0.02625   0.43620 
N     0.23416   0.09139   0.45486 
C     0.19957   0.40625   0.06575 
H     0.17945   0.38830   0.06115 
H     0.28990   0.46285   0.02065 
H     0.31140   0.43180   0.04710 
H     0.30195   0.47375   0.06380 
N     0.23416   0.40861   0.04514 
C     0.40625   0.30043   0.43425 
H     0.38830   0.32055   0.43885 
N     0.40861   0.26584   0.45486 
C     0.30043   0.09375   0.06575 
H     0.32055   0.11170   0.06115 
H     0.21010   0.03715   0.02065 
H     0.18860   0.06820   0.04710 
H     0.19805   0.02625   0.06380 
N     0.26584   0.09139   0.04514 
C     0.09375   0.19957   0.43425 
H     0.11170   0.17945   0.43885 
H     0.03715   0.28990   0.47935 
H     0.06820   0.31140   0.45290 
H     0.02625   0.30195   0.43620 
N     0.09139   0.23416   0.45486 
C     0.30043   0.40625   0.43425 
H     0.32055   0.38830   0.43885 
N     0.26584   0.40861   0.45486 
C     0.40625   0.19957   0.06575 
H     0.38830   0.17945   0.06115 
N     0.40861   0.23416   0.04514 
C     0.09375   0.30043   0.06575 
H     0.11170   0.32055   0.06115 
N     0.09139   0.26584   0.04514 
C     0.68853   0.00395   0.31148 
C     0.68426   0.44957   0.34375 
H     0.68885   0.42945   0.36170 
C     0.70305   0.04275   0.29695 
N     0.70487   0.48416   0.34139 
Zn    0.75000   0.00000   0.37500 
C     0.50395   0.31148   0.18853 
C     0.94957   0.31575   0.15625 
H     0.92945   0.31115   0.13830 
C     0.54275   0.29695   0.20305 
N     0.98416   0.29513   0.15861 
Zn    0.50000   0.25000   0.12500 
C     0.81148   0.49605   0.31148 
C     0.81575   0.05043   0.34375 
H     0.81115   0.07055   0.36170 
C     0.79695   0.45725   0.29695 
H     0.77065   0.46010   0.28715 
H     0.79710   0.43860   0.31820 
H     0.81380   0.44805   0.27625 
N     0.79513   0.01584   0.34139 
C     0.99605   0.18853   0.18853 
C     0.55043   0.18426   0.15625 
H     0.57055   0.18885   0.13830 
C     0.95725   0.20305   0.20305 
H     0.96010   0.22935   0.21285 
H     0.93860   0.20290   0.18180 
H     0.94805   0.18620   0.22375 
N     0.51584   0.20487   0.15861 
C     0.68853   0.49605   0.18853 
C     0.68426   0.05043   0.15625 
H     0.68885   0.07055   0.13830 
C     0.70305   0.45725   0.20305 
N     0.70487   0.01584   0.15861 
Zn    0.75000   0.00000   0.12500 
C     0.99605   0.31148   0.31148 
C     0.55043   0.31575   0.34375 
H     0.57055   0.31115   0.36170 
C     0.95725   0.29695   0.29695 
N     0.51584   0.29513   0.34139 
Zn    0.50000   0.25000   0.37500 
C     0.81148   0.00395   0.18853 
C     0.81575   0.44957   0.15625 
H     0.81115   0.42945   0.13830 
C     0.79695   0.04275   0.20305 
H     0.77065   0.03990   0.21285 
H     0.79710   0.06140   0.18180 
H     0.81380   0.05195   0.22375 
N     0.79513   0.48416   0.15861 
C     0.50395   0.18853   0.31148 
C     0.94957   0.18426   0.34375 
H     0.92945   0.18885   0.36170 
C     0.54275   0.20305   0.29695 
H     0.53990   0.22935   0.28715 
H     0.56140   0.20290   0.31820 
H     0.55195   0.18620   0.27625 
N     0.98416   0.20487   0.34139 
C     0.81148   0.18853   0.00395 
C     0.84375   0.18426   0.44957 
H     0.86170   0.18885   0.42945 
C     0.79695   0.20305   0.04275 
N     0.84139   0.20487   0.48416 
Zn    0.87500   0.25000   0.00000 
C     0.68853   0.18853   0.49605 
C     0.68426   0.15625   0.05043 
H     0.68885   0.13830   0.07055 
C     0.70305   0.20305   0.45725 
H     0.72935   0.21285   0.46010 
H     0.70290   0.18180   0.43860 
H     0.68620   0.22375   0.44805 
N     0.70487   0.15861   0.01584 
Zn    0.75000   0.12500   0.00000 
C     0.68853   0.31148   0.00395 
C     0.65625   0.31575   0.44957 
H     0.63830   0.31115   0.42945 
C     0.70305   0.29695   0.04275 
N     0.65861   0.29513   0.48416 
Zn    0.62500   0.25000   0.00000 
C     0.81148   0.31148   0.49605 
C     0.81575   0.34375   0.05043 
H     0.81115   0.36170   0.07055 
C     0.79695   0.29695   0.45725 
H     0.77065   0.28715   0.46010 
H     0.79710   0.31820   0.43860 
H     0.81380   0.27625   0.44805 
N     0.79513   0.34139   0.01584 
Zn    0.75000   0.37500   0.00000 
C     0.84375   0.31575   0.05043 
H     0.86170   0.31115   0.07055 
N     0.84139   0.29513   0.01584 
C     0.81575   0.15625   0.44957 
H     0.81115   0.13830   0.42945 
H     0.77065   0.21285   0.03990 
H     0.79710   0.18180   0.06140 
H     0.81380   0.22375   0.05195 
N     0.79513   0.15861   0.48416 
C     0.65625   0.18426   0.05043 
H     0.63830   0.18885   0.07055 
N     0.65861   0.20487   0.01584 
C     0.68426   0.34375   0.44957 
H     0.68885   0.36170   0.42945 
H     0.72935   0.28715   0.03990 
H     0.70290   0.31820   0.06140 
H     0.68620   0.27625   0.05195 
N     0.70487   0.34139   0.48416 
C     0.94957   0.34375   0.18426 
H     0.92945   0.36170   0.18885 
H     0.53990   0.28715   0.22935 
H     0.56140   0.31820   0.20290 
H     0.55195   0.27625   0.18620 
N     0.98416   0.34139   0.20487 
Zn    0.50000   0.37500   0.25000 
C     0.94957   0.15625   0.31575 
H     0.92945   0.13830   0.31115 
N     0.98416   0.15861   0.29513 
Zn    0.50000   0.12500   0.25000 
C     0.65625   0.05043   0.18426 
H     0.63830   0.07055   0.18885 
H     0.71285   0.46010   0.22935 
H     0.68180   0.43860   0.20290 
H     0.72375   0.44805   0.18620 
N     0.65861   0.01584   0.20487 
Zn    0.62500   0.00000   0.25000 
C     0.55043   0.34375   0.31575 
H     0.57055   0.36170   0.31115 
H     0.96010   0.28715   0.27065 
H     0.93860   0.31820   0.29710 
H     0.94805   0.27625   0.31380 
N     0.51584   0.34139   0.29513 
C     0.84375   0.44957   0.18426 
H     0.86170   0.42945   0.18885 
N     0.84139   0.48416   0.20487 
Zn    0.87500   0.00000   0.25000 
C     0.55043   0.15625   0.18426 
H     0.57055   0.13830   0.18885 
N     0.51584   0.15861   0.20487 
C     0.65625   0.44957   0.31575 
H     0.63830   0.42945   0.31115 
H     0.71285   0.03990   0.27065 
H     0.68180   0.06140   0.29710 
H     0.72375   0.05195   0.31380 
N     0.65861   0.48416   0.29513 
C     0.84375   0.05043   0.31575 
H     0.86170   0.07055   0.31115 
N     0.84139   0.01584   0.29513 
C     0.93853   0.25395   0.06147 
C     0.93425   0.19957   0.09375 
H     0.93885   0.17945   0.11170 
C     0.95305   0.29275   0.04695 
H     0.97935   0.28990   0.03715 
H     0.95290   0.31140   0.06820 
H     0.93620   0.30195   0.02625 
N     0.95487   0.23416   0.09139 
C     0.75395   0.06147   0.43853 
C     0.69957   0.06575   0.40625 
H     0.67945   0.06115   0.38830 
C     0.79275   0.04695   0.45305 
N     0.73416   0.04514   0.40861 
C     0.56147   0.24605   0.06147 
C     0.56575   0.30043   0.09375 
H     0.56115   0.32055   0.11170 
C     0.54695   0.20725   0.04695 
H     0.52065   0.21010   0.03715 
H     0.54710   0.18860   0.06820 
H     0.56380   0.19805   0.02625 
N     0.54514   0.26584   0.09139 
C     0.74605   0.43853   0.43853 
C     0.80043   0.43425   0.40625 
H     0.82055   0.43885   0.38830 
C     0.70725   0.45305   0.45305 
H     0.71010   0.47935   0.46285 
H     0.68860   0.45290   0.43180 
H     0.69805   0.43620   0.47375 
N     0.76584   0.45486   0.40861 
C     0.93853   0.24605   0.43853 
C     0.93425   0.30043   0.40625 
H     0.93885   0.32055   0.38830 
C     0.95305   0.20725   0.45305 
H     0.97935   0.21010   0.46285 
H     0.95290   0.18860   0.43180 
H     0.93620   0.19805   0.47375 
N     0.95487   0.26584   0.40861 
C     0.74605   0.06147   0.06147 
C     0.80043   0.06575   0.09375 
H     0.82055   0.06115   0.11170 
C     0.70725   0.04695   0.04695 
N     0.76584   0.04514   0.09139 
C     0.56147   0.25395   0.43853 
C     0.56575   0.19957   0.40625 
H     0.56115   0.17945   0.38830 
C     0.54695   0.29275   0.45305 
N     0.54514   0.23416   0.40861 
C     0.75395   0.43853   0.06147 
C     0.69957   0.43425   0.09375 
H     0.67945   0.43885   0.11170 
C     0.79275   0.45305   0.04695 
N     0.73416   0.45486   0.09139 
C     0.56147   0.43853   0.25395 
C     0.59375   0.43425   0.19957 
H     0.61170   0.43885   0.17945 
C     0.54695   0.45305   0.29275 
N     0.59139   0.45486   0.23416 
C     0.93853   0.43853   0.24605 
C     0.93425   0.40625   0.30043 
H     0.93885   0.38830   0.32055 
C     0.95305   0.45305   0.20725 
H     0.97935   0.46285   0.21010 
H     0.95290   0.43180   0.18860 
H     0.93620   0.47375   0.19805 
N     0.95487   0.40861   0.26584 
C     0.93853   0.06147   0.25395 
C     0.90625   0.06575   0.19957 
H     0.88830   0.06115   0.17945 
C     0.95305   0.04695   0.29275 
N     0.90861   0.04514   0.23416 
C     0.56147   0.06147   0.24605 
C     0.56575   0.09375   0.30043 
H     0.56115   0.11170   0.32055 
C     0.54695   0.04695   0.20725 
H     0.52065   0.03715   0.21010 
H     0.54710   0.06820   0.18860 
H     0.56380   0.02625   0.19805 
N     0.54514   0.09139   0.26584 
C     0.59375   0.06575   0.30043 
H     0.61170   0.06115   0.32055 
N     0.59139   0.04514   0.26584 
C     0.56575   0.40625   0.19957 
H     0.56115   0.38830   0.17945 
H     0.52065   0.46285   0.28990 
H     0.54710   0.43180   0.31140 
H     0.56380   0.47375   0.30195 
N     0.54514   0.40861   0.23416 
C     0.90625   0.43425   0.30043 
H     0.88830   0.43885   0.32055 
N     0.90861   0.45486   0.26584 
C     0.93425   0.09375   0.19957 
H     0.93885   0.11170   0.17945 
H     0.97935   0.03715   0.28990 
H     0.95290   0.06820   0.31140 
H     0.93620   0.02625   0.30195 
N     0.95487   0.09139   0.23416 
C     0.69957   0.09375   0.43425 
H     0.67945   0.11170   0.43885 
H     0.78990   0.03715   0.47935 
H     0.81140   0.06820   0.45290 
H     0.80195   0.02625   0.43620 
N     0.73416   0.09139   0.45486 
C     0.69957   0.40625   0.06575 
H     0.67945   0.38830   0.06115 
H     0.78990   0.46285   0.02065 
H     0.81140   0.43180   0.04710 
H     0.80195   0.47375   0.06380 
N     0.73416   0.40861   0.04514 
C     0.90625   0.30043   0.43425 
H     0.88830   0.32055   0.43885 
N     0.90861   0.26584   0.45486 
C     0.80043   0.09375   0.06575 
H     0.82055   0.11170   0.06115 
H     0.71010   0.03715   0.02065 
H     0.68860   0.06820   0.04710 
H     0.69805   0.02625   0.06380 
N     0.76584   0.09139   0.04514 
C     0.59375   0.19957   0.43425 
H     0.61170   0.17945   0.43885 
H     0.53715   0.28990   0.47935 
H     0.56820   0.31140   0.45290 
H     0.52625   0.30195   0.43620 
N     0.59139   0.23416   0.45486 
C     0.80043   0.40625   0.43425 
H     0.82055   0.38830   0.43885 
N     0.76584   0.40861   0.45486 
C     0.90625   0.19957   0.06575 
H     0.88830   0.17945   0.06115 
N     0.90861   0.23416   0.04514 
C     0.59375   0.30043   0.06575 
H     0.61170   0.32055   0.06115 
N     0.59139   0.26584   0.04514 
C     0.18853   0.50395   0.31148 
C     0.18426   0.94957   0.34375 
H     0.18885   0.92945   0.36170 
C     0.20305   0.54275   0.29695 
N     0.20487   0.98416   0.34139 
Zn    0.25000   0.50000   0.37500 
C     0.00395   0.81148   0.18853 
C     0.44957   0.81575   0.15625 
H     0.42945   0.81115   0.13830 
C     0.04275   0.79695   0.20305 
N     0.48416   0.79513   0.15861 
Zn    0.00000   0.75000   0.12500 
C     0.31148   0.99605   0.31148 
C     0.31575   0.55043   0.34375 
H     0.31115   0.57055   0.36170 
C     0.29695   0.95725   0.29695 
H     0.27065   0.96010   0.28715 
H     0.29710   0.93860   0.31820 
H     0.31380   0.94805   0.27625 
N     0.29513   0.51584   0.34139 
C     0.49605   0.68853   0.18853 
C     0.05043   0.68426   0.15625 
H     0.07055   0.68885   0.13830 
C     0.45725   0.70305   0.20305 
H     0.46010   0.72935   0.21285 
H     0.43860   0.70290   0.18180 
H     0.44805   0.68620   0.22375 
N     0.01584   0.70487   0.15861 
C     0.18853   0.99605   0.18853 
C     0.18426   0.55043   0.15625 
H     0.18885   0.57055   0.13830 
C     0.20305   0.95725   0.20305 
N     0.20487   0.51584   0.15861 
Zn    0.25000   0.50000   0.12500 
C     0.49605   0.81148   0.31148 
C     0.05043   0.81575   0.34375 
H     0.07055   0.81115   0.36170 
C     0.45725   0.79695   0.29695 
N     0.01584   0.79513   0.34139 
Zn    0.00000   0.75000   0.37500 
C     0.31148   0.50395   0.18853 
C     0.31575   0.94957   0.15625 
H     0.31115   0.92945   0.13830 
C     0.29695   0.54275   0.20305 
H     0.27065   0.53990   0.21285 
H     0.29710   0.56140   0.18180 
H     0.31380   0.55195   0.22375 
N     0.29513   0.98416   0.15861 
C     0.00395   0.68853   0.31148 
C     0.44957   0.68426   0.34375 
H     0.42945   0.68885   0.36170 
C     0.04275   0.70305   0.29695 
H     0.03990   0.72935   0.28715 
H     0.06140   0.70290   0.31820 
H     0.05195   0.68620   0.27625 
N     0.48416   0.70487   0.34139 
C     0.31148   0.68853   0.00395 
C     0.34375   0.68426   0.44957 
H     0.36170   0.68885   0.42945 
C     0.29695   0.70305   0.04275 
N     0.34139   0.70487   0.48416 
Zn    0.37500   0.75000   0.00000 
C     0.18853   0.68853   0.49605 
C     0.18426   0.65625   0.05043 
H     0.18885   0.63830   0.07055 
C     0.20305   0.70305   0.45725 
H     0.22935   0.71285   0.46010 
H     0.20290   0.68180   0.43860 
H     0.18620   0.72375   0.44805 
N     0.20487   0.65861   0.01584 
Zn    0.25000   0.62500   0.00000 
C     0.18853   0.81148   0.00395 
C     0.15625   0.81575   0.44957 
H     0.13830   0.81115   0.42945 
C     0.20305   0.79695   0.04275 
N     0.15861   0.79513   0.48416 
Zn    0.12500   0.75000   0.00000 
C     0.31148   0.81148   0.49605 
C     0.31575   0.84375   0.05043 
H     0.31115   0.86170   0.07055 
C     0.29695   0.79695   0.45725 
H     0.27065   0.78715   0.46010 
H     0.29710   0.81820   0.43860 
H     0.31380   0.77625   0.44805 
N     0.29513   0.84139   0.01584 
Zn    0.25000   0.87500   0.00000 
C     0.34375   0.81575   0.05043 
H     0.36170   0.81115   0.07055 
N     0.34139   0.79513   0.01584 
C     0.31575   0.65625   0.44957 
H     0.31115   0.63830   0.42945 
H     0.27065   0.71285   0.03990 
H     0.29710   0.68180   0.06140 
H     0.31380   0.72375   0.05195 
N     0.29513   0.65861   0.48416 
C     0.15625   0.68426   0.05043 
H     0.13830   0.68885   0.07055 
N     0.15861   0.70487   0.01584 
C     0.18426   0.84375   0.44957 
H     0.18885   0.86170   0.42945 
H     0.22935   0.78715   0.03990 
H     0.20290   0.81820   0.06140 
H     0.18620   0.77625   0.05195 
N     0.20487   0.84139   0.48416 
C     0.44957   0.84375   0.18426 
H     0.42945   0.86170   0.18885 
H     0.03990   0.78715   0.22935 
H     0.06140   0.81820   0.20290 
H     0.05195   0.77625   0.18620 
N     0.48416   0.84139   0.20487 
Zn    0.00000   0.87500   0.25000 
C     0.44957   0.65625   0.31575 
H     0.42945   0.63830   0.31115 
N     0.48416   0.65861   0.29513 
Zn    0.00000   0.62500   0.25000 
C     0.15625   0.55043   0.18426 
H     0.13830   0.57055   0.18885 
H     0.21285   0.96010   0.22935 
H     0.18180   0.93860   0.20290 
H     0.22375   0.94805   0.18620 
N     0.15861   0.51584   0.20487 
Zn    0.12500   0.50000   0.25000 
C     0.05043   0.84375   0.31575 
H     0.07055   0.86170   0.31115 
H     0.46010   0.78715   0.27065 
H     0.43860   0.81820   0.29710 
H     0.44805   0.77625   0.31380 
N     0.01584   0.84139   0.29513 
C     0.34375   0.94957   0.18426 
H     0.36170   0.92945   0.18885 
N     0.34139   0.98416   0.20487 
Zn    0.37500   0.50000   0.25000 
C     0.05043   0.65625   0.18426 
H     0.07055   0.63830   0.18885 
N     0.01584   0.65861   0.20487 
C     0.15625   0.94957   0.31575 
H     0.13830   0.92945   0.31115 
H     0.21285   0.53990   0.27065 
H     0.18180   0.56140   0.29710 
H     0.22375   0.55195   0.31380 
N     0.15861   0.98416   0.29513 
C     0.34375   0.55043   0.31575 
H     0.36170   0.57055   0.31115 
N     0.34139   0.51584   0.29513 
C     0.43853   0.75395   0.06147 
C     0.43425   0.69957   0.09375 
H     0.43885   0.67945   0.11170 
C     0.45305   0.79275   0.04695 
H     0.47935   0.78990   0.03715 
H     0.45290   0.81140   0.06820 
H     0.43620   0.80195   0.02625 
N     0.45486   0.73416   0.09139 
C     0.25395   0.56147   0.43853 
C     0.19957   0.56575   0.40625 
H     0.17945   0.56115   0.38830 
C     0.29275   0.54695   0.45305 
N     0.23416   0.54514   0.40861 
C     0.06147   0.74605   0.06147 
C     0.06575   0.80043   0.09375 
H     0.06115   0.82055   0.11170 
C     0.04695   0.70725   0.04695 
H     0.02065   0.71010   0.03715 
H     0.04710   0.68860   0.06820 
H     0.06380   0.69805   0.02625 
N     0.04514   0.76584   0.09139 
C     0.24605   0.93853   0.43853 
C     0.30043   0.93425   0.40625 
H     0.32055   0.93885   0.38830 
C     0.20725   0.95305   0.45305 
H     0.21010   0.97935   0.46285 
H     0.18860   0.95290   0.43180 
H     0.19805   0.93620   0.47375 
N     0.26584   0.95487   0.40861 
C     0.43853   0.74605   0.43853 
C     0.43425   0.80043   0.40625 
H     0.43885   0.82055   0.38830 
C     0.45305   0.70725   0.45305 
H     0.47935   0.71010   0.46285 
H     0.45290   0.68860   0.43180 
H     0.43620   0.69805   0.47375 
N     0.45486   0.76584   0.40861 
C     0.24605   0.56147   0.06147 
C     0.30043   0.56575   0.09375 
H     0.32055   0.56115   0.11170 
C     0.20725   0.54695   0.04695 
N     0.26584   0.54514   0.09139 
C     0.06147   0.75395   0.43853 
C     0.06575   0.69957   0.40625 
H     0.06115   0.67945   0.38830 
C     0.04695   0.79275   0.45305 
N     0.04514   0.73416   0.40861 
C     0.25395   0.93853   0.06147 
C     0.19957   0.93425   0.09375 
H     0.17945   0.93885   0.11170 
C     0.29275   0.95305   0.04695 
N     0.23416   0.95487   0.09139 
C     0.06147   0.93853   0.25395 
C     0.09375   0.93425   0.19957 
H     0.11170   0.93885   0.17945 
C     0.04695   0.95305   0.29275 
N     0.09139   0.95487   0.23416 
C     0.43853   0.93853   0.24605 
C     0.43425   0.90625   0.30043 
H     0.43885   0.88830   0.32055 
C     0.45305   0.95305   0.20725 
H     0.47935   0.96285   0.21010 
H     0.45290   0.93180   0.18860 
H     0.43620   0.97375   0.19805 
N     0.45486   0.90861   0.26584 
C     0.43853   0.56147   0.25395 
C     0.40625   0.56575   0.19957 
H     0.38830   0.56115   0.17945 
C     0.45305   0.54695   0.29275 
N     0.40861   0.54514   0.23416 
C     0.06147   0.56147   0.24605 
C     0.06575   0.59375   0.30043 
H     0.06115   0.61170   0.32055 
C     0.04695   0.54695   0.20725 
H     0.02065   0.53715   0.21010 
H     0.04710   0.56820   0.18860 
H     0.06380   0.52625   0.19805 
N     0.04514   0.59139   0.26584 
C     0.09375   0.56575   0.30043 
H     0.11170   0.56115   0.32055 
N     0.09139   0.54514   0.26584 
C     0.06575   0.90625   0.19957 
H     0.06115   0.88830   0.17945 
H     0.02065   0.96285   0.28990 
H     0.04710   0.93180   0.31140 
H     0.06380   0.97375   0.30195 
N     0.04514   0.90861   0.23416 
C     0.40625   0.93425   0.30043 
H     0.38830   0.93885   0.32055 
N     0.40861   0.95487   0.26584 
C     0.43425   0.59375   0.19957 
H     0.43885   0.61170   0.17945 
H     0.47935   0.53715   0.28990 
H     0.45290   0.56820   0.31140 
H     0.43620   0.52625   0.30195 
N     0.45486   0.59139   0.23416 
C     0.19957   0.59375   0.43425 
H     0.17945   0.61170   0.43885 
H     0.28990   0.53715   0.47935 
H     0.31140   0.56820   0.45290 
H     0.30195   0.52625   0.43620 
N     0.23416   0.59139   0.45486 
C     0.19957   0.90625   0.06575 
H     0.17945   0.88830   0.06115 
H     0.28990   0.96285   0.02065 
H     0.31140   0.93180   0.04710 
H     0.30195   0.97375   0.06380 
N     0.23416   0.90861   0.04514 
C     0.40625   0.80043   0.43425 
H     0.38830   0.82055   0.43885 
N     0.40861   0.76584   0.45486 
C     0.30043   0.59375   0.06575 
H     0.32055   0.61170   0.06115 
H     0.21010   0.53715   0.02065 
H     0.18860   0.56820   0.04710 
H     0.19805   0.52625   0.06380 
N     0.26584   0.59139   0.04514 
C     0.09375   0.69957   0.43425 
H     0.11170   0.67945   0.43885 
H     0.03715   0.78990   0.47935 
H     0.06820   0.81140   0.45290 
H     0.02625   0.80195   0.43620 
N     0.09139   0.73416   0.45486 
C     0.30043   0.90625   0.43425 
H     0.32055   0.88830   0.43885 
N     0.26584   0.90861   0.45486 
C     0.40625   0.69957   0.06575 
H     0.38830   0.67945   0.06115 
N     0.40861   0.73416   0.04514 
C     0.09375   0.80043   0.06575 
H     0.11170   0.82055   0.06115 
N     0.09139   0.76584   0.04514 
C     0.68853   0.50395   0.31148 
C     0.68426   0.94957   0.34375 
H     0.68885   0.92945   0.36170 
C     0.70305   0.54275   0.29695 
N     0.70487   0.98416   0.34139 
Zn    0.75000   0.50000   0.37500 
C     0.50395   0.81148   0.18853 
C     0.94957   0.81575   0.15625 
H     0.92945   0.81115   0.13830 
C     0.54275   0.79695   0.20305 
N     0.98416   0.79513   0.15861 
Zn    0.50000   0.75000   0.12500 
C     0.81148   0.99605   0.31148 
C     0.81575   0.55043   0.34375 
H     0.81115   0.57055   0.36170 
C     0.79695   0.95725   0.29695 
H     0.77065   0.96010   0.28715 
H     0.79710   0.93860   0.31820 
H     0.81380   0.94805   0.27625 
N     0.79513   0.51584   0.34139 
C     0.99605   0.68853   0.18853 
C     0.55043   0.68426   0.15625 
H     0.57055   0.68885   0.13830 
C     0.95725   0.70305   0.20305 
H     0.96010   0.72935   0.21285 
H     0.93860   0.70290   0.18180 
H     0.94805   0.68620   0.22375 
N     0.51584   0.70487   0.15861 
C     0.68853   0.99605   0.18853 
C     0.68426   0.55043   0.15625 
H     0.68885   0.57055   0.13830 
C     0.70305   0.95725   0.20305 
N     0.70487   0.51584   0.15861 
Zn    0.75000   0.50000   0.12500 
C     0.99605   0.81148   0.31148 
C     0.55043   0.81575   0.34375 
H     0.57055   0.81115   0.36170 
C     0.95725   0.79695   0.29695 
N     0.51584   0.79513   0.34139 
Zn    0.50000   0.75000   0.37500 
C     0.81148   0.50395   0.18853 
C     0.81575   0.94957   0.15625 
H     0.81115   0.92945   0.13830 
C     0.79695   0.54275   0.20305 
H     0.77065   0.53990   0.21285 
H     0.79710   0.56140   0.18180 
H     0.81380   0.55195   0.22375 
N     0.79513   0.98416   0.15861 
C     0.50395   0.68853   0.31148 
C     0.94957   0.68426   0.34375 
H     0.92945   0.68885   0.36170 
C     0.54275   0.70305   0.29695 
H     0.53990   0.72935   0.28715 
H     0.56140   0.70290   0.31820 
H     0.55195   0.68620   0.27625 
N     0.98416   0.70487   0.34139 
C     0.81148   0.68853   0.00395 
C     0.84375   0.68426   0.44957 
H     0.86170   0.68885   0.42945 
C     0.79695   0.70305   0.04275 
N     0.84139   0.70487   0.48416 
Zn    0.87500   0.75000   0.00000 
C     0.68853   0.68853   0.49605 
C     0.68426   0.65625   0.05043 
H     0.68885   0.63830   0.07055 
C     0.70305   0.70305   0.45725 
H     0.72935   0.71285   0.46010 
H     0.70290   0.68180   0.43860 
H     0.68620   0.72375   0.44805 
N     0.70487   0.65861   0.01584 
Zn    0.75000   0.62500   0.00000 
C     0.68853   0.81148   0.00395 
C     0.65625   0.81575   0.44957 
H     0.63830   0.81115   0.42945 
C     0.70305   0.79695   0.04275 
N     0.65861   0.79513   0.48416 
Zn    0.62500   0.75000   0.00000 
C     0.81148   0.81148   0.49605 
C     0.81575   0.84375   0.05043 
H     0.81115   0.86170   0.07055 
C     0.79695   0.79695   0.45725 
H     0.77065   0.78715   0.46010 
H     0.79710   0.81820   0.43860 
H     0.81380   0.77625   0.44805 
N     0.79513   0.84139   0.01584 
Zn    0.75000   0.87500   0.00000 
C     0.84375   0.81575   0.05043 
H     0.86170   0.81115   0.07055 
N     0.84139   0.79513   0.01584 
C     0.81575   0.65625   0.44957 
H     0.81115   0.63830   0.42945 
H     0.77065   0.71285   0.03990 
H     0.79710   0.68180   0.06140 
H     0.81380   0.72375   0.05195 
N     0.79513   0.65861   0.48416 
C     0.65625   0.68426   0.05043 
H     0.63830   0.68885   0.07055 
N     0.65861   0.70487   0.01584 
C     0.68426   0.84375   0.44957 
H     0.68885   0.86170   0.42945 
H     0.72935   0.78715   0.03990 
H     0.70290   0.81820   0.06140 
H     0.68620   0.77625   0.05195 
N     0.70487   0.84139   0.48416 
C     0.94957   0.84375   0.18426 
H     0.92945   0.86170   0.18885 
H     0.53990   0.78715   0.22935 
H     0.56140   0.81820   0.20290 
H     0.55195   0.77625   0.18620 
N     0.98416   0.84139   0.20487 
Zn    0.50000   0.87500   0.25000 
C     0.94957   0.65625   0.31575 
H     0.92945   0.63830   0.31115 
N     0.98416   0.65861   0.29513 
Zn    0.50000   0.62500   0.25000 
C     0.65625   0.55043   0.18426 
H     0.63830   0.57055   0.18885 
H     0.71285   0.96010   0.22935 
H     0.68180   0.93860   0.20290 
H     0.72375   0.94805   0.18620 
N     0.65861   0.51584   0.20487 
Zn    0.62500   0.50000   0.25000 
C     0.55043   0.84375   0.31575 
H     0.57055   0.86170   0.31115 
H     0.96010   0.78715   0.27065 
H     0.93860   0.81820   0.29710 
H     0.94805   0.77625   0.31380 
N     0.51584   0.84139   0.29513 
C     0.84375   0.94957   0.18426 
H     0.86170   0.92945   0.18885 
N     0.84139   0.98416   0.20487 
Zn    0.87500   0.50000   0.25000 
C     0.55043   0.65625   0.18426 
H     0.57055   0.63830   0.18885 
N     0.51584   0.65861   0.20487 
C     0.65625   0.94957   0.31575 
H     0.63830   0.92945   0.31115 
H     0.71285   0.53990   0.27065 
H     0.68180   0.56140   0.29710 
H     0.72375   0.55195   0.31380 
N     0.65861   0.98416   0.29513 
C     0.84375   0.55043   0.31575 
H     0.86170   0.57055   0.31115 
N     0.84139   0.51584   0.29513 
C     0.93853   0.75395   0.06147 
C     0.93425   0.69957   0.09375 
H     0.93885   0.67945   0.11170 
C     0.95305   0.79275   0.04695 
H     0.97935   0.78990   0.03715 
H     0.95290   0.81140   0.06820 
H     0.93620   0.80195   0.02625 
N     0.95487   0.73416   0.09139 
C     0.75395   0.56147   0.43853 
C     0.69957   0.56575   0.40625 
H     0.67945   0.56115   0.38830 
C     0.79275   0.54695   0.45305 
N     0.73416   0.54514   0.40861 
C     0.56147   0.74605   0.06147 
C     0.56575   0.80043   0.09375 
H     0.56115   0.82055   0.11170 
C     0.54695   0.70725   0.04695 
H     0.52065   0.71010   0.03715 
H     0.54710   0.68860   0.06820 
H     0.56380   0.69805   0.02625 
N     0.54514   0.76584   0.09139 
C     0.74605   0.93853   0.43853 
C     0.80043   0.93425   0.40625 
H     0.82055   0.93885   0.38830 
C     0.70725   0.95305   0.45305 
H     0.71010   0.97935   0.46285 
H     0.68860   0.95290   0.43180 
H     0.69805   0.93620   0.47375 
N     0.76584   0.95487   0.40861 
C     0.93853   0.74605   0.43853 
C     0.93425   0.80043   0.40625 
H     0.93885   0.82055   0.38830 
C     0.95305   0.70725   0.45305 
H     0.97935   0.71010   0.46285 
H     0.95290   0.68860   0.43180 
H     0.93620   0.69805   0.47375 
N     0.95487   0.76584   0.40861 
C     0.74605   0.56147   0.06147 
C     0.80043   0.56575   0.09375 
H     0.82055   0.56115   0.11170 
C     0.70725   0.54695   0.04695 
N     0.76584   0.54514   0.09139 
C     0.56147   0.75395   0.43853 
C     0.56575   0.69957   0.40625 
H     0.56115   0.67945   0.38830 
C     0.54695   0.79275   0.45305 
N     0.54514   0.73416   0.40861 
C     0.75395   0.93853   0.06147 
C     0.69957   0.93425   0.09375 
H     0.67945   0.93885   0.11170 
C     0.79275   0.95305   0.04695 
N     0.73416   0.95487   0.09139 
C     0.56147   0.93853   0.25395 
C     0.59375   0.93425   0.19957 
H     0.61170   0.93885   0.17945 
C     0.54695   0.95305   0.29275 
N     0.59139   0.95487   0.23416 
C     0.93853   0.93853   0.24605 
C     0.93425   0.90625   0.30043 
H     0.93885   0.88830   0.32055 
C     0.95305   0.95305   0.20725 
H     0.97935   0.96285   0.21010 
H     0.95290   0.93180   0.18860 
H     0.93620   0.97375   0.19805 
N     0.95487   0.90861   0.26584 
C     0.93853   0.56147   0.25395 
C     0.90625   0.56575   0.19957 
H     0.88830   0.56115   0.17945 
C     0.95305   0.54695   0.29275 
N     0.90861   0.54514   0.23416 
C     0.56147   0.56147   0.24605 
C     0.56575   0.59375   0.30043 
H     0.56115   0.61170   0.32055 
C     0.54695   0.54695   0.20725 
H     0.52065   0.53715   0.21010 
H     0.54710   0.56820   0.18860 
H     0.56380   0.52625   0.19805 
N     0.54514   0.59139   0.26584 
C     0.59375   0.56575   0.30043 
H     0.61170   0.56115   0.32055 
N     0.59139   0.54514   0.26584 
C     0.56575   0.90625   0.19957 
H     0.56115   0.88830   0.17945 
H     0.52065   0.96285   0.28990 
H     0.54710   0.93180   0.31140 
H     0.56380   0.97375   0.30195 
N     0.54514   0.90861   0.23416 
C     0.90625   0.93425   0.30043 
H     0.88830   0.93885   0.32055 
N     0.90861   0.95487   0.26584 
C     0.93425   0.59375   0.19957 
H     0.93885   0.61170   0.17945 
H     0.97935   0.53715   0.28990 
H     0.95290   0.56820   0.31140 
H     0.93620   0.52625   0.30195 
N     0.95487   0.59139   0.23416 
C     0.69957   0.59375   0.43425 
H     0.67945   0.61170   0.43885 
H     0.78990   0.53715   0.47935 
H     0.81140   0.56820   0.45290 
H     0.80195   0.52625   0.43620 
N     0.73416   0.59139   0.45486 
C     0.69957   0.90625   0.06575 
H     0.67945   0.88830   0.06115 
H     0.78990   0.96285   0.02065 
H     0.81140   0.93180   0.04710 
H     0.80195   0.97375   0.06380 
N     0.73416   0.90861   0.04514 
C     0.90625   0.80043   0.43425 
H     0.88830   0.82055   0.43885 
N     0.90861   0.76584   0.45486 
C     0.80043   0.59375   0.06575 
H     0.82055   0.61170   0.06115 
H     0.71010   0.53715   0.02065 
H     0.68860   0.56820   0.04710 
H     0.69805   0.52625   0.06380 
N     0.76584   0.59139   0.04514 
C     0.59375   0.69957   0.43425 
H     0.61170   0.67945   0.43885 
H     0.53715   0.78990   0.47935 
H     0.56820   0.81140   0.45290 
H     0.52625   0.80195   0.43620 
N     0.59139   0.73416   0.45486 
C     0.80043   0.90625   0.43425 
H     0.82055   0.88830   0.43885 
N     0.76584   0.90861   0.45486 
C     0.90625   0.69957   0.06575 
H     0.88830   0.67945   0.06115 
N     0.90861   0.73416   0.04514 
C     0.59375   0.80043   0.06575 
H     0.61170   0.82055   0.06115 
N     0.59139   0.76584   0.04514 
C     0.18853   0.00395   0.81148 
C     0.18426   0.44957   0.84375 
H     0.18885   0.42945   0.86170 
C     0.20305   0.04275   0.79695 
N     0.20487   0.48416   0.84139 
Zn    0.25000   0.00000   0.87500 
C     0.00395   0.31148   0.68853 
C     0.44957   0.31575   0.65625 
H     0.42945   0.31115   0.63830 
C     0.04275   0.29695   0.70305 
N     0.48416   0.29513   0.65861 
Zn    0.00000   0.25000   0.62500 
C     0.31148   0.49605   0.81148 
C     0.31575   0.05043   0.84375 
H     0.31115   0.07055   0.86170 
C     0.29695   0.45725   0.79695 
H     0.27065   0.46010   0.78715 
H     0.29710   0.43860   0.81820 
H     0.31380   0.44805   0.77625 
N     0.29513   0.01584   0.84139 
C     0.49605   0.18853   0.68853 
C     0.05043   0.18426   0.65625 
H     0.07055   0.18885   0.63830 
C     0.45725   0.20305   0.70305 
H     0.46010   0.22935   0.71285 
H     0.43860   0.20290   0.68180 
H     0.44805   0.18620   0.72375 
N     0.01584   0.20487   0.65861 
C     0.18853   0.49605   0.68853 
C     0.18426   0.05043   0.65625 
H     0.18885   0.07055   0.63830 
C     0.20305   0.45725   0.70305 
N     0.20487   0.01584   0.65861 
Zn    0.25000   0.00000   0.62500 
C     0.49605   0.31148   0.81148 
C     0.05043   0.31575   0.84375 
H     0.07055   0.31115   0.86170 
C     0.45725   0.29695   0.79695 
N     0.01584   0.29513   0.84139 
Zn    0.00000   0.25000   0.87500 
C     0.31148   0.00395   0.68853 
C     0.31575   0.44957   0.65625 
H     0.31115   0.42945   0.63830 
C     0.29695   0.04275   0.70305 
H     0.27065   0.03990   0.71285 
H     0.29710   0.06140   0.68180 
H     0.31380   0.05195   0.72375 
N     0.29513   0.48416   0.65861 
C     0.00395   0.18853   0.81148 
C     0.44957   0.18426   0.84375 
H     0.42945   0.18885   0.86170 
C     0.04275   0.20305   0.79695 
H     0.03990   0.22935   0.78715 
H     0.06140   0.20290   0.81820 
H     0.05195   0.18620   0.77625 
N     0.48416   0.20487   0.84139 
C     0.31148   0.18853   0.50395 
C     0.34375   0.18426   0.94957 
H     0.36170   0.18885   0.92945 
C     0.29695   0.20305   0.54275 
N     0.34139   0.20487   0.98416 
Zn    0.37500   0.25000   0.50000 
C     0.18853   0.18853   0.99605 
C     0.18426   0.15625   0.55043 
H     0.18885   0.13830   0.57055 
C     0.20305   0.20305   0.95725 
H     0.22935   0.21285   0.96010 
H     0.20290   0.18180   0.93860 
H     0.18620   0.22375   0.94805 
N     0.20487   0.15861   0.51584 
Zn    0.25000   0.12500   0.50000 
C     0.18853   0.31148   0.50395 
C     0.15625   0.31575   0.94957 
H     0.13830   0.31115   0.92945 
C     0.20305   0.29695   0.54275 
N     0.15861   0.29513   0.98416 
Zn    0.12500   0.25000   0.50000 
C     0.31148   0.31148   0.99605 
C     0.31575   0.34375   0.55043 
H     0.31115   0.36170   0.57055 
C     0.29695   0.29695   0.95725 
H     0.27065   0.28715   0.96010 
H     0.29710   0.31820   0.93860 
H     0.31380   0.27625   0.94805 
N     0.29513   0.34139   0.51584 
Zn    0.25000   0.37500   0.50000 
C     0.34375   0.31575   0.55043 
H     0.36170   0.31115   0.57055 
N     0.34139   0.29513   0.51584 
C     0.31575   0.15625   0.94957 
H     0.31115   0.13830   0.92945 
H     0.27065   0.21285   0.53990 
H     0.29710   0.18180   0.56140 
H     0.31380   0.22375   0.55195 
N     0.29513   0.15861   0.98416 
C     0.15625   0.18426   0.55043 
H     0.13830   0.18885   0.57055 
N     0.15861   0.20487   0.51584 
C     0.18426   0.34375   0.94957 
H     0.18885   0.36170   0.92945 
H     0.22935   0.28715   0.53990 
H     0.20290   0.31820   0.56140 
H     0.18620   0.27625   0.55195 
N     0.20487   0.34139   0.98416 
C     0.44957   0.34375   0.68426 
H     0.42945   0.36170   0.68885 
H     0.03990   0.28715   0.72935 
H     0.06140   0.31820   0.70290 
H     0.05195   0.27625   0.68620 
N     0.48416   0.34139   0.70487 
Zn    0.00000   0.37500   0.75000 
C     0.44957   0.15625   0.81575 
H     0.42945   0.13830   0.81115 
N     0.48416   0.15861   0.79513 
Zn    0.00000   0.12500   0.75000 
C     0.15625   0.05043   0.68426 
H     0.13830   0.07055   0.68885 
H     0.21285   0.46010   0.72935 
H     0.18180   0.43860   0.70290 
H     0.22375   0.44805   0.68620 
N     0.15861   0.01584   0.70487 
Zn    0.12500   0.00000   0.75000 
C     0.05043   0.34375   0.81575 
H     0.07055   0.36170   0.81115 
H     0.46010   0.28715   0.77065 
H     0.43860   0.31820   0.79710 
H     0.44805   0.27625   0.81380 
N     0.01584   0.34139   0.79513 
C     0.34375   0.44957   0.68426 
H     0.36170   0.42945   0.68885 
N     0.34139   0.48416   0.70487 
Zn    0.37500   0.00000   0.75000 
C     0.05043   0.15625   0.68426 
H     0.07055   0.13830   0.68885 
N     0.01584   0.15861   0.70487 
C     0.15625   0.44957   0.81575 
H     0.13830   0.42945   0.81115 
H     0.21285   0.03990   0.77065 
H     0.18180   0.06140   0.79710 
H     0.22375   0.05195   0.81380 
N     0.15861   0.48416   0.79513 
C     0.34375   0.05043   0.81575 
H     0.36170   0.07055   0.81115 
N     0.34139   0.01584   0.79513 
C     0.43853   0.25395   0.56147 
C     0.43425   0.19957   0.59375 
H     0.43885   0.17945   0.61170 
C     0.45305   0.29275   0.54695 
H     0.47935   0.28990   0.53715 
H     0.45290   0.31140   0.56820 
H     0.43620   0.30195   0.52625 
N     0.45486   0.23416   0.59139 
C     0.25395   0.06147   0.93853 
C     0.19957   0.06575   0.90625 
H     0.17945   0.06115   0.88830 
C     0.29275   0.04695   0.95305 
N     0.23416   0.04514   0.90861 
C     0.06147   0.24605   0.56147 
C     0.06575   0.30043   0.59375 
H     0.06115   0.32055   0.61170 
C     0.04695   0.20725   0.54695 
H     0.02065   0.21010   0.53715 
H     0.04710   0.18860   0.56820 
H     0.06380   0.19805   0.52625 
N     0.04514   0.26584   0.59139 
C     0.24605   0.43853   0.93853 
C     0.30043   0.43425   0.90625 
H     0.32055   0.43885   0.88830 
C     0.20725   0.45305   0.95305 
H     0.21010   0.47935   0.96285 
H     0.18860   0.45290   0.93180 
H     0.19805   0.43620   0.97375 
N     0.26584   0.45486   0.90861 
C     0.43853   0.24605   0.93853 
C     0.43425   0.30043   0.90625 
H     0.43885   0.32055   0.88830 
C     0.45305   0.20725   0.95305 
H     0.47935   0.21010   0.96285 
H     0.45290   0.18860   0.93180 
H     0.43620   0.19805   0.97375 
N     0.45486   0.26584   0.90861 
C     0.24605   0.06147   0.56147 
C     0.30043   0.06575   0.59375 
H     0.32055   0.06115   0.61170 
C     0.20725   0.04695   0.54695 
N     0.26584   0.04514   0.59139 
C     0.06147   0.25395   0.93853 
C     0.06575   0.19957   0.90625 
H     0.06115   0.17945   0.88830 
C     0.04695   0.29275   0.95305 
N     0.04514   0.23416   0.90861 
C     0.25395   0.43853   0.56147 
C     0.19957   0.43425   0.59375 
H     0.17945   0.43885   0.61170 
C     0.29275   0.45305   0.54695 
N     0.23416   0.45486   0.59139 
C     0.06147   0.43853   0.75395 
C     0.09375   0.43425   0.69957 
H     0.11170   0.43885   0.67945 
C     0.04695   0.45305   0.79275 
N     0.09139   0.45486   0.73416 
C     0.43853   0.43853   0.74605 
C     0.43425   0.40625   0.80043 
H     0.43885   0.38830   0.82055 
C     0.45305   0.45305   0.70725 
H     0.47935   0.46285   0.71010 
H     0.45290   0.43180   0.68860 
H     0.43620   0.47375   0.69805 
N     0.45486   0.40861   0.76584 
C     0.43853   0.06147   0.75395 
C     0.40625   0.06575   0.69957 
H     0.38830   0.06115   0.67945 
C     0.45305   0.04695   0.79275 
N     0.40861   0.04514   0.73416 
C     0.06147   0.06147   0.74605 
C     0.06575   0.09375   0.80043 
H     0.06115   0.11170   0.82055 
C     0.04695   0.04695   0.70725 
H     0.02065   0.03715   0.71010 
H     0.04710   0.06820   0.68860 
H     0.06380   0.02625   0.69805 
N     0.04514   0.09139   0.76584 
C     0.09375   0.06575   0.80043 
H     0.11170   0.06115   0.82055 
N     0.09139   0.04514   0.76584 
C     0.06575   0.40625   0.69957 
H     0.06115   0.38830   0.67945 
H     0.02065   0.46285   0.78990 
H     0.04710   0.43180   0.81140 
H     0.06380   0.47375   0.80195 
N     0.04514   0.40861   0.73416 
C     0.40625   0.43425   0.80043 
H     0.38830   0.43885   0.82055 
N     0.40861   0.45486   0.76584 
C     0.43425   0.09375   0.69957 
H     0.43885   0.11170   0.67945 
H     0.47935   0.03715   0.78990 
H     0.45290   0.06820   0.81140 
H     0.43620   0.02625   0.80195 
N     0.45486   0.09139   0.73416 
C     0.19957   0.09375   0.93425 
H     0.17945   0.11170   0.93885 
H     0.28990   0.03715   0.97935 
H     0.31140   0.06820   0.95290 
H     0.30195   0.02625   0.93620 
N     0.23416   0.09139   0.95487 
C     0.19957   0.40625   0.56575 
H     0.17945   0.38830   0.56115 
H     0.28990   0.46285   0.52065 
H     0.31140   0.43180   0.54710 
H     0.30195   0.47375   0.56380 
N     0.23416   0.40861   0.54514 
C     0.40625   0.30043   0.93425 
H     0.38830   0.32055   0.93885 
N     0.40861   0.26584   0.95487 
C     0.30043   0.09375   0.56575 
H     0.32055   0.11170   0.56115 
H     0.21010   0.03715   0.52065 
H     0.18860   0.06820   0.54710 
H     0.19805   0.02625   0.56380 
N     0.26584   0.09139   0.54514 
C     0.09375   0.19957   0.93425 
H     0.11170   0.17945   0.93885 
H     0.03715   0.28990   0.97935 
H     0.06820   0.31140   0.95290 
H     0.02625   0.30195   0.93620 
N     0.09139   0.23416   0.95487 
C     0.30043   0.40625   0.93425 
H     0.32055   0.38830   0.93885 
N     0.26584   0.40861   0.95487 
C     0.40625   0.19957   0.56575 
H     0.38830   0.17945   0.56115 
N     0.40861   0.23416   0.54514 
C     0.09375   0.30043   0.56575 
H     0.11170   0.32055   0.56115 
N     0.09139   0.26584   0.54514 
C     0.68853   0.00395   0.81148 
C     0.68426   0.44957   0.84375 
H     0.68885   0.42945   0.86170 
C     0.70305   0.04275   0.79695 
N     0.70487   0.48416   0.84139 
Zn    0.75000   0.00000   0.87500 
C     0.50395   0.31148   0.68853 
C     0.94957   0.31575   0.65625 
H     0.92945   0.31115   0.63830 
C     0.54275   0.29695   0.70305 
N     0.98416   0.29513   0.65861 
Zn    0.50000   0.25000   0.62500 
C     0.81148   0.49605   0.81148 
C     0.81575   0.05043   0.84375 
H     0.81115   0.07055   0.86170 
C     0.79695   0.45725   0.79695 
H     0.77065   0.46010   0.78715 
H     0.79710   0.43860   0.81820 
H     0.81380   0.44805   0.77625 
N     0.79513   0.01584   0.84139 
C     0.99605   0.18853   0.68853 
C     0.55043   0.18426   0.65625 
H     0.57055   0.18885   0.63830 
C     0.95725   0.20305   0.70305 
H     0.96010   0.22935   0.71285 
H     0.93860   0.20290   0.68180 
H     0.94805   0.18620   0.72375 
N     0.51584   0.20487   0.65861 
C     0.68853   0.49605   0.68853 
C     0.68426   0.05043   0.65625 
H     0.68885   0.07055   0.63830 
C     0.70305   0.45725   0.70305 
N     0.70487   0.01584   0.65861 
Zn    0.75000   0.00000   0.62500 
C     0.99605   0.31148   0.81148 
C     0.55043   0.31575   0.84375 
H     0.57055   0.31115   0.86170 
C     0.95725   0.29695   0.79695 
N     0.51584   0.29513   0.84139 
Zn    0.50000   0.25000   0.87500 
C     0.81148   0.00395   0.68853 
C     0.81575   0.44957   0.65625 
H     0.81115   0.42945   0.63830 
C     0.79695   0.04275   0.70305 
H     0.77065   0.03990   0.71285 
H     0.79710   0.06140   0.68180 
H     0.81380   0.05195   0.72375 
N     0.79513   0.48416   0.65861 
C     0.50395   0.18853   0.81148 
C     0.94957   0.18426   0.84375 
H     0.92945   0.18885   0.86170 
C     0.54275   0.20305   0.79695 
H     0.53990   0.22935   0.78715 
H     0.56140   0.20290   0.81820 
H     0.55195   0.18620   0.77625 
N     0.98416   0.20487   0.84139 
C     0.81148   0.18853   0.50395 
C     0.84375   0.18426   0.94957 
H     0.86170   0.18885   0.92945 
C     0.79695   0.20305   0.54275 
N     0.84139   0.20487   0.98416 
Zn    0.87500   0.25000   0.50000 
C     0.68853   0.18853   0.99605 
C     0.68426   0.15625   0.55043 
H     0.68885   0.13830   0.57055 
C     0.70305   0.20305   0.95725 
H     0.72935   0.21285   0.96010 
H     0.70290   0.18180   0.93860 
H     0.68620   0.22375   0.94805 
N     0.70487   0.15861   0.51584 
Zn    0.75000   0.12500   0.50000 
C     0.68853   0.31148   0.50395 
C     0.65625   0.31575   0.94957 
H     0.63830   0.31115   0.92945 
C     0.70305   0.29695   0.54275 
N     0.65861   0.29513   0.98416 
Zn    0.62500   0.25000   0.50000 
C     0.81148   0.31148   0.99605 
C     0.81575   0.34375   0.55043 
H     0.81115   0.36170   0.57055 
C     0.79695   0.29695   0.95725 
H     0.77065   0.28715   0.96010 
H     0.79710   0.31820   0.93860 
H     0.81380   0.27625   0.94805 
N     0.79513   0.34139   0.51584 
Zn    0.75000   0.37500   0.50000 
C     0.84375   0.31575   0.55043 
H     0.86170   0.31115   0.57055 
N     0.84139   0.29513   0.51584 
C     0.81575   0.15625   0.94957 
H     0.81115   0.13830   0.92945 
H     0.77065   0.21285   0.53990 
H     0.79710   0.18180   0.56140 
H     0.81380   0.22375   0.55195 
N     0.79513   0.15861   0.98416 
C     0.65625   0.18426   0.55043 
H     0.63830   0.18885   0.57055 
N     0.65861   0.20487   0.51584 
C     0.68426   0.34375   0.94957 
H     0.68885   0.36170   0.92945 
H     0.72935   0.28715   0.53990 
H     0.70290   0.31820   0.56140 
H     0.68620   0.27625   0.55195 
N     0.70487   0.34139   0.98416 
C     0.94957   0.34375   0.68426 
H     0.92945   0.36170   0.68885 
H     0.53990   0.28715   0.72935 
H     0.56140   0.31820   0.70290 
H     0.55195   0.27625   0.68620 
N     0.98416   0.34139   0.70487 
Zn    0.50000   0.37500   0.75000 
C     0.94957   0.15625   0.81575 
H     0.92945   0.13830   0.81115 
N     0.98416   0.15861   0.79513 
Zn    0.50000   0.12500   0.75000 
C     0.65625   0.05043   0.68426 
H     0.63830   0.07055   0.68885 
H     0.71285   0.46010   0.72935 
H     0.68180   0.43860   0.70290 
H     0.72375   0.44805   0.68620 
N     0.65861   0.01584   0.70487 
Zn    0.62500   0.00000   0.75000 
C     0.55043   0.34375   0.81575 
H     0.57055   0.36170   0.81115 
H     0.96010   0.28715   0.77065 
H     0.93860   0.31820   0.79710 
H     0.94805   0.27625   0.81380 
N     0.51584   0.34139   0.79513 
C     0.84375   0.44957   0.68426 
H     0.86170   0.42945   0.68885 
N     0.84139   0.48416   0.70487 
Zn    0.87500   0.00000   0.75000 
C     0.55043   0.15625   0.68426 
H     0.57055   0.13830   0.68885 
N     0.51584   0.15861   0.70487 
C     0.65625   0.44957   0.81575 
H     0.63830   0.42945   0.81115 
H     0.71285   0.03990   0.77065 
H     0.68180   0.06140   0.79710 
H     0.72375   0.05195   0.81380 
N     0.65861   0.48416   0.79513 
C     0.84375   0.05043   0.81575 
H     0.86170   0.07055   0.81115 
N     0.84139   0.01584   0.79513 
C     0.93853   0.25395   0.56147 
C     0.93425   0.19957   0.59375 
H     0.93885   0.17945   0.61170 
C     0.95305   0.29275   0.54695 
H     0.97935   0.28990   0.53715 
H     0.95290   0.31140   0.56820 
H     0.93620   0.30195   0.52625 
N     0.95487   0.23416   0.59139 
C     0.75395   0.06147   0.93853 
C     0.69957   0.06575   0.90625 
H     0.67945   0.06115   0.88830 
C     0.79275   0.04695   0.95305 
N     0.73416   0.04514   0.90861 
C     0.56147   0.24605   0.56147 
C     0.56575   0.30043   0.59375 
H     0.56115   0.32055   0.61170 
C     0.54695   0.20725   0.54695 
H     0.52065   0.21010   0.53715 
H     0.54710   0.18860   0.56820 
H     0.56380   0.19805   0.52625 
N     0.54514   0.26584   0.59139 
C     0.74605   0.43853   0.93853 
C     0.80043   0.43425   0.90625 
H     0.82055   0.43885   0.88830 
C     0.70725   0.45305   0.95305 
H     0.71010   0.47935   0.96285 
H     0.68860   0.45290   0.93180 
H     0.69805   0.43620   0.97375 
N     0.76584   0.45486   0.90861 
C     0.93853   0.24605   0.93853 
C     0.93425   0.30043   0.90625 
H     0.93885   0.32055   0.88830 
C     0.95305   0.20725   0.95305 
H     0.97935   0.21010   0.96285 
H     0.95290   0.18860   0.93180 
H     0.93620   0.19805   0.97375 
N     0.95487   0.26584   0.90861 
C     0.74605   0.06147   0.56147 
C     0.80043   0.06575   0.59375 
H     0.82055   0.06115   0.61170 
C     0.70725   0.04695   0.54695 
N     0.76584   0.04514   0.59139 
C     0.56147   0.25395   0.93853 
C     0.56575   0.19957   0.90625 
H     0.56115   0.17945   0.88830 
C     0.54695   0.29275   0.95305 
N     0.54514   0.23416   0.90861 
C     0.75395   0.43853   0.56147 
C     0.69957   0.43425   0.59375 
H     0.67945   0.43885   0.61170 
C     0.79275   0.45305   0.54695 
N     0.73416   0.45486   0.59139 
C     0.56147   0.43853   0.75395 
C     0.59375   0.43425   0.69957 
H     0.61170   0.43885   0.67945 
C     0.54695   0.45305   0.79275 
N     0.59139   0.45486   0.73416 
C     0.93853   0.43853   0.74605 
C     0.93425   0.40625   0.80043 
H     0.93885   0.38830   0.82055 
C     0.95305   0.45305   0.70725 
H     0.97935   0.46285   0.71010 
H     0.95290   0.43180   0.68860 
H     0.93620   0.47375   0.69805 
N     0.95487   0.40861   0.76584 
C     0.93853   0.06147   0.75395 
C     0.90625   0.06575   0.69957 
H     0.88830   0.06115   0.67945 
C     0.95305   0.04695   0.79275 
N     0.90861   0.04514   0.73416 
C     0.56147   0.06147   0.74605 
C     0.56575   0.09375   0.80043 
H     0.56115   0.11170   0.82055 
C     0.54695   0.04695   0.70725 
H     0.52065   0.03715   0.71010 
H     0.54710   0.06820   0.68860 
H     0.56380   0.02625   0.69805 
N     0.54514   0.09139   0.76584 
C     0.59375   0.06575   0.80043 
H     0.61170   0.06115   0.82055 
N     0.59139   0.04514   0.76584 
C     0.56575   0.40625   0.69957 
H     0.56115   0.38830   0.67945 
H     0.52065   0.46285   0.78990 
H     0.54710   0.43180   0.81140 
H     0.56380   0.47375   0.80195 
N     0.54514   0.40861   0.73416 
C     0.90625   0.43425   0.80043 
H     0.88830   0.43885   0.82055 
N     0.90861   0.45486   0.76584 
C     0.93425   0.09375   0.69957 
H     0.93885   0.11170   0.67945 
H     0.97935   0.03715   0.78990 
H     0.95290   0.06820   0.81140 
H     0.93620   0.02625   0.80195 
N     0.95487   0.09139   0.73416 
C     0.69957   0.09375   0.93425 
H     0.67945   0.11170   0.93885 
H     0.78990   0.03715   0.97935 
H     0.81140   0.06820   0.95290 
H     0.80195   0.02625   0.93620 
N     0.73416   0.09139   0.95487 
C     0.69957   0.40625   0.56575 
H     0.67945   0.38830   0.56115 
H     0.78990   0.46285   0.52065 
H     0.81140   0.43180   0.54710 
H     0.80195   0.47375   0.56380 
N     0.73416   0.40861   0.54514 
C     0.90625   0.30043   0.93425 
H     0.88830   0.32055   0.93885 
N     0.90861   0.26584   0.95487 
C     0.80043   0.09375   0.56575 
H     0.82055   0.11170   0.56115 
H     0.71010   0.03715   0.52065 
H     0.68860   0.06820   0.54710 
H     0.69805   0.02625   0.56380 
N     0.76584   0.09139   0.54514 
C     0.59375   0.19957   0.93425 
H     0.61170   0.17945   0.93885 
H     0.53715   0.28990   0.97935 
H     0.56820   0.31140   0.95290 
H     0.52625   0.30195   0.93620 
N     0.59139   0.23416   0.95487 
C     0.80043   0.40625   0.93425 
H     0.82055   0.38830   0.93885 
N     0.76584   0.40861   0.95487 
C     0.90625   0.19957   0.56575 
H     0.88830   0.17945   0.56115 
N     0.90861   0.23416   0.54514 
C     0.59375   0.30043   0.56575 
H     0.61170   0.32055   0.56115 
N     0.59139   0.26584   0.54514 
C     0.18853   0.50395   0.81148 
C     0.18426   0.94957   0.84375 
H     0.18885   0.92945   0.86170 
C     0.20305   0.54275   0.79695 
N     0.20487   0.98416   0.84139 
Zn    0.25000   0.50000   0.87500 
C     0.00395   0.81148   0.68853 
C     0.44957   0.81575   0.65625 
H     0.42945   0.81115   0.63830 
C     0.04275   0.79695   0.70305 
N     0.48416   0.79513   0.65861 
Zn    0.00000   0.75000   0.62500 
C     0.31148   0.99605   0.81148 
C     0.31575   0.55043   0.84375 
H     0.31115   0.57055   0.86170 
C     0.29695   0.95725   0.79695 
H     0.27065   0.96010   0.78715 
H     0.29710   0.93860   0.81820 
H     0.31380   0.94805   0.77625 
N     0.29513   0.51584   0.84139 
C     0.49605   0.68853   0.68853 
C     0.05043   0.68426   0.65625 
H     0.07055   0.68885   0.63830 
C     0.45725   0.70305   0.70305 
H     0.46010   0.72935   0.71285 
H     0.43860   0.70290   0.68180 
H     0.44805   0.68620   0.72375 
N     0.01584   0.70487   0.65861 
C     0.18853   0.99605   0.68853 
C     0.18426   0.55043   0.65625 
H     0.18885   0.57055   0.63830 
C     0.20305   0.95725   0.70305 
N     0.20487   0.51584   0.65861 
Zn    0.25000   0.50000   0.62500 
C     0.49605   0.81148   0.81148 
C     0.05043   0.81575   0.84375 
H     0.07055   0.81115   0.86170 
C     0.45725   0.79695   0.79695 
N     0.01584   0.79513   0.84139 
Zn    0.00000   0.75000   0.87500 
C     0.31148   0.50395   0.68853 
C     0.31575   0.94957   0.65625 
H     0.31115   0.92945   0.63830 
C     0.29695   0.54275   0.70305 
H     0.27065   0.53990   0.71285 
H     0.29710   0.56140   0.68180 
H     0.31380   0.55195   0.72375 
N     0.29513   0.98416   0.65861 
C     0.00395   0.68853   0.81148 
C     0.44957   0.68426   0.84375 
H     0.42945   0.68885   0.86170 
C     0.04275   0.70305   0.79695 
H     0.03990   0.72935   0.78715 
H     0.06140   0.70290   0.81820 
H     0.05195   0.68620   0.77625 
N     0.48416   0.70487   0.84139 
C     0.31148   0.68853   0.50395 
C     0.34375   0.68426   0.94957 
H     0.36170   0.68885   0.92945 
C     0.29695   0.70305   0.54275 
N     0.34139   0.70487   0.98416 
Zn    0.37500   0.75000   0.50000 
C     0.18853   0.68853   0.99605 
C     0.18426   0.65625   0.55043 
H     0.18885   0.63830   0.57055 
C     0.20305   0.70305   0.95725 
H     0.22935   0.71285   0.96010 
H     0.20290   0.68180   0.93860 
H     0.18620   0.72375   0.94805 
N     0.20487   0.65861   0.51584 
Zn    0.25000   0.62500   0.50000 
C     0.18853   0.81148   0.50395 
C     0.15625   0.81575   0.94957 
H     0.13830   0.81115   0.92945 
C     0.20305   0.79695   0.54275 
N     0.15861   0.79513   0.98416 
Zn    0.12500   0.75000   0.50000 
C     0.31148   0.81148   0.99605 
C     0.31575   0.84375   0.55043 
H     0.31115   0.86170   0.57055 
C     0.29695   0.79695   0.95725 
H     0.27065   0.78715   0.96010 
H     0.29710   0.81820   0.93860 
H     0.31380   0.77625   0.94805 
N     0.29513   0.84139   0.51584 
Zn    0.25000   0.87500   0.50000 
C     0.34375   0.81575   0.55043 
H     0.36170   0.81115   0.57055 
N     0.34139   0.79513   0.51584 
C     0.31575   0.65625   0.94957 
H     0.31115   0.63830   0.92945 
H     0.27065   0.71285   0.53990 
H     0.29710   0.68180   0.56140 
H     0.31380   0.72375   0.55195 
N     0.29513   0.65861   0.98416 
C     0.15625   0.68426   0.55043 
H     0.13830   0.68885   0.57055 
N     0.15861   0.70487   0.51584 
C     0.18426   0.84375   0.94957 
H     0.18885   0.86170   0.92945 
H     0.22935   0.78715   0.53990 
H     0.20290   0.81820   0.56140 
H     0.18620   0.77625   0.55195 
N     0.20487   0.84139   0.98416 
C     0.44957   0.84375   0.68426 
H     0.42945   0.86170   0.68885 
H     0.03990   0.78715   0.72935 
H     0.06140   0.81820   0.70290 
H     0.05195   0.77625   0.68620 
N     0.48416   0.84139   0.70487 
Zn    0.00000   0.87500   0.75000 
C     0.44957   0.65625   0.81575 
H     0.42945   0.63830   0.81115 
N     0.48416   0.65861   0.79513 
Zn    0.00000   0.62500   0.75000 
C     0.15625   0.55043   0.68426 
H     0.13830   0.57055   0.68885 
H     0.21285   0.96010   0.72935 
H     0.18180   0.93860   0.70290 
H     0.22375   0.94805   0.68620 
N     0.15861   0.51584   0.70487 
Zn    0.12500   0.50000   0.75000 
C     0.05043   0.84375   0.81575 
H     0.07055   0.86170   0.81115 
H     0.46010   0.78715   0.77065 
H     0.43860   0.81820   0.79710 
H     0.44805   0.77625   0.81380 
N     0.01584   0.84139   0.79513 
C     0.34375   0.94957   0.68426 
H     0.36170   0.92945   0.68885 
N     0.34139   0.98416   0.70487 
Zn    0.37500   0.50000   0.75000 
C     0.05043   0.65625   0.68426 
H     0.07055   0.63830   0.68885 
N     0.01584   0.65861   0.70487 
C     0.15625   0.94957   0.81575 
H     0.13830   0.92945   0.81115 
H     0.21285   0.53990   0.77065 
H     0.18180   0.56140   0.79710 
H     0.22375   0.55195   0.81380 
N     0.15861   0.98416   0.79513 
C     0.34375   0.55043   0.81575 
H     0.36170   0.57055   0.81115 
N     0.34139   0.51584   0.79513 
C     0.43853   0.75395   0.56147 
C     0.43425   0.69957   0.59375 
H     0.43885   0.67945   0.61170 
C     0.45305   0.79275   0.54695 
H     0.47935   0.78990   0.53715 
H     0.45290   0.81140   0.56820 
H     0.43620   0.80195   0.52625 
N     0.45486   0.73416   0.59139 
C     0.25395   0.56147   0.93853 
C     0.19957   0.56575   0.90625 
H     0.17945   0.56115   0.88830 
C     0.29275   0.54695   0.95305 
N     0.23416   0.54514   0.90861 
C     0.06147   0.74605   0.56147 
C     0.06575   0.80043   0.59375 
H     0.06115   0.82055   0.61170 
C     0.04695   0.70725   0.54695 
H     0.02065   0.71010   0.53715 
H     0.04710   0.68860   0.56820 
H     0.06380   0.69805   0.52625 
N     0.04514   0.76584   0.59139 
C     0.24605   0.93853   0.93853 
C     0.30043   0.93425   0.90625 
H     0.32055   0.93885   0.88830 
C     0.20725   0.95305   0.95305 
H     0.21010   0.97935   0.96285 
H     0.18860   0.95290   0.93180 
H     0.19805   0.93620   0.97375 
N     0.26584   0.95487   0.90861 
C     0.43853   0.74605   0.93853 
C     0.43425   0.80043   0.90625 
H     0.43885   0.82055   0.88830 
C     0.45305   0.70725   0.95305 
H     0.47935   0.71010   0.96285 
H     0.45290   0.68860   0.93180 
H     0.43620   0.69805   0.97375 
N     0.45486   0.76584   0.90861 
C     0.24605   0.56147   0.56147 
C     0.30043   0.56575   0.59375 
H     0.32055   0.56115   0.61170 
C     0.20725   0.54695   0.54695 
N     0.26584   0.54514   0.59139 
C     0.06147   0.75395   0.93853 
C     0.06575   0.69957   0.90625 
H     0.06115   0.67945   0.88830 
C     0.04695   0.79275   0.95305 
N     0.04514   0.73416   0.90861 
C     0.25395   0.93853   0.56147 
C     0.19957   0.93425   0.59375 
H     0.17945   0.93885   0.61170 
C     0.29275   0.95305   0.54695 
N     0.23416   0.95487   0.59139 
C     0.06147   0.93853   0.75395 
C     0.09375   0.93425   0.69957 
H     0.11170   0.93885   0.67945 
C     0.04695   0.95305   0.79275 
N     0.09139   0.95487   0.73416 
C     0.43853   0.93853   0.74605 
C     0.43425   0.90625   0.80043 
H     0.43885   0.88830   0.82055 
C     0.45305   0.95305   0.70725 
H     0.47935   0.96285   0.71010 
H     0.45290   0.93180   0.68860 
H     0.43620   0.97375   0.69805 
N     0.45486   0.90861   0.76584 
C     0.43853   0.56147   0.75395 
C     0.40625   0.56575   0.69957 
H     0.38830   0.56115   0.67945 
C     0.45305   0.54695   0.79275 
N     0.40861   0.54514   0.73416 
C     0.06147   0.56147   0.74605 
C     0.06575   0.59375   0.80043 
H     0.06115   0.61170   0.82055 
C     0.04695   0.54695   0.70725 
H     0.02065   0.53715   0.71010 
H     0.04710   0.56820   0.68860 
H     0.06380   0.52625   0.69805 
N     0.04514   0.59139   0.76584 
C     0.09375   0.56575   0.80043 
H     0.11170   0.56115   0.82055 
N     0.09139   0.54514   0.76584 
C     0.06575   0.90625   0.69957 
H     0.06115   0.88830   0.67945 
H     0.02065   0.96285   0.78990 
H     0.04710   0.93180   0.81140 
H     0.06380   0.97375   0.80195 
N     0.04514   0.90861   0.73416 
C     0.40625   0.93425   0.80043 
H     0.38830   0.93885   0.82055 
N     0.40861   0.95487   0.76584 
C     0.43425   0.59375   0.69957 
H     0.43885   0.61170   0.67945 
H     0.47935   0.53715   0.78990 
H     0.45290   0.56820   0.81140 
H     0.43620   0.52625   0.80195 
N     0.45486   0.59139   0.73416 
C     0.19957   0.59375   0.93425 
H     0.17945   0.61170   0.93885 
H     0.28990   0.53715   0.97935 
H     0.31140   0.56820   0.95290 
H     0.30195   0.52625   0.93620 
N     0.23416   0.59139   0.95487 
C     0.19957   0.90625   0.56575 
H     0.17945   0.88830   0.56115 
H     0.28990   0.96285   0.52065 
H     0.31140   0.93180   0.54710 
H     0.30195   0.97375   0.56380 
N     0.23416   0.90861   0.54514 
C     0.40625   0.80043   0.93425 
H     0.38830   0.82055   0.93885 
N     0.40861   0.76584   0.95487 
C     0.30043   0.59375   0.56575 
H     0.32055   0.61170   0.56115 
H     0.21010   0.53715   0.52065 
H     0.18860   0.56820   0.54710 
H     0.19805   0.52625   0.56380 
N     0.26584   0.59139   0.54514 
C     0.09375   0.69957   0.93425 
H     0.11170   0.67945   0.93885 
H     0.03715   0.78990   0.97935 
H     0.06820   0.81140   0.95290 
H     0.02625   0.80195   0.93620 
N     0.09139   0.73416   0.95487 
C     0.30043   0.90625   0.93425 
H     0.32055   0.88830   0.93885 
N     0.26584   0.90861   0.95487 
C     0.40625   0.69957   0.56575 
H     0.38830   0.67945   0.56115 
N     0.40861   0.73416   0.54514 
C     0.09375   0.80043   0.56575 
H     0.11170   0.82055   0.56115 
N     0.09139   0.76584   0.54514 
C     0.68853   0.50395   0.81148 
C     0.68426   0.94957   0.84375 
H     0.68885   0.92945   0.86170 
C     0.70305   0.54275   0.79695 
N     0.70487   0.98416   0.84139 
Zn    0.75000   0.50000   0.87500 
C     0.50395   0.81148   0.68853 
C     0.94957   0.81575   0.65625 
H     0.92945   0.81115   0.63830 
C     0.54275   0.79695   0.70305 
N     0.98416   0.79513   0.65861 
Zn    0.50000   0.75000   0.62500 
C     0.81148   0.99605   0.81148 
C     0.81575   0.55043   0.84375 
H     0.81115   0.57055   0.86170 
C     0.79695   0.95725   0.79695 
H     0.77065   0.96010   0.78715 
H     0.79710   0.93860   0.81820 
H     0.81380   0.94805   0.77625 
N     0.79513   0.51584   0.84139 
C     0.99605   0.68853   0.68853 
C     0.55043   0.68426   0.65625 
H     0.57055   0.68885   0.63830 
C     0.95725   0.70305   0.70305 
H     0.96010   0.72935   0.71285 
H     0.93860   0.70290   0.68180 
H     0.94805   0.68620   0.72375 
N     0.51584   0.70487   0.65861 
C     0.68853   0.99605   0.68853 
C     0.68426   0.55043   0.65625 
H     0.68885   0.57055   0.63830 
C     0.70305   0.95725   0.70305 
N     0.70487   0.51584   0.65861 
Zn    0.75000   0.50000   0.62500 
C     0.99605   0.81148   0.81148 
C     0.55043   0.81575   0.84375 
H     0.57055   0.81115   0.86170 
C     0.95725   0.79695   0.79695 
N     0.51584   0.79513   0.84139 
Zn    0.50000   0.75000   0.87500 
C     0.81148   0.50395   0.68853 
C     0.81575   0.94957   0.65625 
H     0.81115   0.92945   0.63830 
C     0.79695   0.54275   0.70305 
H     0.77065   0.53990   0.71285 
H     0.79710   0.56140   0.68180 
H     0.81380   0.55195   0.72375 
N     0.79513   0.98416   0.65861 
C     0.50395   0.68853   0.81148 
C     0.94957   0.68426   0.84375 
H     0.92945   0.68885   0.86170 
C     0.54275   0.70305   0.79695 
H     0.53990   0.72935   0.78715 
H     0.56140   0.70290   0.81820 
H     0.55195   0.68620   0.77625 
N     0.98416   0.70487   0.84139 
C     0.81148   0.68853   0.50395 
C     0.84375   0.68426   0.94957 
H     0.86170   0.68885   0.92945 
C     0.79695   0.70305   0.54275 
N     0.84139   0.70487   0.98416 
Zn    0.87500   0.75000   0.50000 
C     0.68853   0.68853   0.99605 
C     0.68426   0.65625   0.55043 
H     0.68885   0.63830   0.57055 
C     0.70305   0.70305   0.95725 
H     0.72935   0.71285   0.96010 
H     0.70290   0.68180   0.93860 
H     0.68620   0.72375   0.94805 
N     0.70487   0.65861   0.51584 
Zn    0.75000   0.62500   0.50000 
C     0.68853   0.81148   0.50395 
C     0.65625   0.81575   0.94957 
H     0.63830   0.81115   0.92945 
C     0.70305   0.79695   0.54275 
N     0.65861   0.79513   0.98416 
Zn    0.62500   0.75000   0.50000 
C     0.81148   0.81148   0.99605 
C     0.81575   0.84375   0.55043 
H     0.81115   0.86170   0.57055 
C     0.79695   0.79695   0.95725 
H     0.77065   0.78715   0.96010 
H     0.79710   0.81820   0.93860 
H     0.81380   0.77625   0.94805 
N     0.79513   0.84139   0.51584 
Zn    0.75000   0.87500   0.50000 
C     0.84375   0.81575   0.55043 
H     0.86170   0.81115   0.57055 
N     0.84139   0.79513   0.51584 
C     0.81575   0.65625   0.94957 
H     0.81115   0.63830   0.92945 
H     0.77065   0.71285   0.53990 
H     0.79710   0.68180   0.56140 
H     0.81380   0.72375   0.55195 
N     0.79513   0.65861   0.98416 
C     0.65625   0.68426   0.55043 
H     0.63830   0.68885   0.57055 
N     0.65861   0.70487   0.51584 
C     0.68426   0.84375   0.94957 
H     0.68885   0.86170   0.92945 
H     0.72935   0.78715   0.53990 
H     0.70290   0.81820   0.56140 
H     0.68620   0.77625   0.55195 
N     0.70487   0.84139   0.98416 
C     0.94957   0.84375   0.68426 
H     0.92945   0.86170   0.68885 
H     0.53990   0.78715   0.72935 
H     0.56140   0.81820   0.70290 
H     0.55195   0.77625   0.68620 
N     0.98416   0.84139   0.70487 
Zn    0.50000   0.87500   0.75000 
C     0.94957   0.65625   0.81575 
H     0.92945   0.63830   0.81115 
N     0.98416   0.65861   0.79513 
Zn    0.50000   0.62500   0.75000 
C     0.65625   0.55043   0.68426 
H     0.63830   0.57055   0.68885 
H     0.71285   0.96010   0.72935 
H     0.68180   0.93860   0.70290 
H     0.72375   0.94805   0.68620 
N     0.65861   0.51584   0.70487 
Zn    0.62500   0.50000   0.75000 
C     0.55043   0.84375   0.81575 
H     0.57055   0.86170   0.81115 
H     0.96010   0.78715   0.77065 
H     0.93860   0.81820   0.79710 
H     0.94805   0.77625   0.81380 
N     0.51584   0.84139   0.79513 
C     0.84375   0.94957   0.68426 
H     0.86170   0.92945   0.68885 
N     0.84139   0.98416   0.70487 
Zn    0.87500   0.50000   0.75000 
C     0.55043   0.65625   0.68426 
H     0.57055   0.63830   0.68885 
N     0.51584   0.65861   0.70487 
C     0.65625   0.94957   0.81575 
H     0.63830   0.92945   0.81115 
H     0.71285   0.53990   0.77065 
H     0.68180   0.56140   0.79710 
H     0.72375   0.55195   0.81380 
N     0.65861   0.98416   0.79513 
C     0.84375   0.55043   0.81575 
H     0.86170   0.57055   0.81115 
N     0.84139   0.51584   0.79513 
C     0.93853   0.75395   0.56147 
C     0.93425   0.69957   0.59375 
H     0.93885   0.67945   0.61170 
C     0.95305   0.79275   0.54695 
H     0.97935   0.78990   0.53715 
H     0.95290   0.81140   0.56820 
H     0.93620   0.80195   0.52625 
N     0.95487   0.73416   0.59139 
C     0.75395   0.56147   0.93853 
C     0.69957   0.56575   0.90625 
H     0.67945   0.56115   0.88830 
C     0.79275   0.54695   0.95305 
N     0.73416   0.54514   0.90861 
C     0.56147   0.74605   0.56147 
C     0.56575   0.80043   0.59375 
H     0.56115   0.82055   0.61170 
C     0.54695   0.70725   0.54695 
H     0.52065   0.71010   0.53715 
H     0.54710   0.68860   0.56820 
H     0.56380   0.69805   0.52625 
N     0.54514   0.76584   0.59139 
C     0.74605   0.93853   0.93853 
C     0.80043   0.93425   0.90625 
H     0.82055   0.93885   0.88830 
C     0.70725   0.95305   0.95305 
H     0.71010   0.97935   0.96285 
H     0.68860   0.95290   0.93180 
H     0.69805   0.93620   0.97375 
N     0.76584   0.95487   0.90861 
C     0.93853   0.74605   0.93853 
C     0.93425   0.80043   0.90625 
H     0.93885   0.82055   0.88830 
C     0.95305   0.70725   0.95305 
H     0.97935   0.71010   0.96285 
H     0.95290   0.68860   0.93180 
H     0.93620   0.69805   0.97375 
N     0.95487   0.76584   0.90861 
C     0.74605   0.56147   0.56147 
C     0.80043   0.56575   0.59375 
H     0.82055   0.56115   0.61170 
C     0.70725   0.54695   0.54695 
N     0.76584   0.54514   0.59139 
C     0.56147   0.75395   0.93853 
C     0.56575   0.69957   0.90625 
H     0.56115   0.67945   0.88830 
C     0.54695   0.79275   0.95305 
N     0.54514   0.73416   0.90861 
C     0.75395   0.93853   0.56147 
C     0.69957   0.93425   0.59375 
H     0.67945   0.93885   0.61170 
C     0.79275   0.95305   0.54695 
N     0.73416   0.95487   0.59139 
C     0.56147   0.93853   0.75395 
C     0.59375   0.93425   0.69957 
H     0.61170   0.93885   0.67945 
C     0.54695   0.95305   0.79275 
N     0.59139   0.95487   0.73416 
C     0.93853   0.93853   0.74605 
C     0.93425   0.90625   0.80043 
H     0.93885   0.88830   0.82055 
C     0.95305   0.95305   0.70725 
H     0.97935   0.96285   0.71010 
H     0.95290   0.93180   0.68860 
H     0.93620   0.97375   0.69805 
N     0.95487   0.90861   0.76584 
C     0.93853   0.56147   0.75395 
C     0.90625   0.56575   0.69957 
H     0.88830   0.56115   0.67945 
C     0.95305   0.54695   0.79275 
N     0.90861   0.54514   0.73416 
C     0.56147   0.56147   0.74605 
C     0.56575   0.59375   0.80043 
H     0.56115   0.61170   0.82055 
C     0.54695   0.54695   0.70725 
H     0.52065   0.53715   0.71010 
H     0.54710   0.56820   0.68860 
H     0.56380   0.52625   0.69805 
N     0.54514   0.59139   0.76584 
C     0.59375   0.56575   0.80043 
H     0.61170   0.56115   0.82055 
N     0.59139   0.54514   0.76584 
C     0.56575   0.90625   0.69957 
H     0.56115   0.88830   0.67945 
H     0.52065   0.96285   0.78990 
H     0.54710   0.93180   0.81140 
H     0.56380   0.97375   0.80195 
N     0.54514   0.90861   0.73416 
C     0.90625   0.93425   0.80043 
H     0.88830   0.93885   0.82055 
N     0.90861   0.95487   0.76584 
C     0.93425   0.59375   0.69957 
H     0.93885   0.61170   0.67945 
H     0.97935   0.53715   0.78990 
H     0.95290   0.56820   0.81140 
H     0.93620   0.52625   0.80195 
N     0.95487   0.59139   0.73416 
C     0.69957   0.59375   0.93425 
H     0.67945   0.61170   0.93885 
H     0.78990   0.53715   0.97935 
H     0.81140   0.56820   0.95290 
H     0.80195   0.52625   0.93620 
N     0.73416   0.59139   0.95487 
C     0.69957   0.90625   0.56575 
H     0.67945   0.88830   0.56115 
H     0.78990   0.96285   0.52065 
H     0.81140   0.93180   0.54710 
H     0.80195   0.97375   0.56380 
N     0.73416   0.90861   0.54514 
C     0.90625   0.80043   0.93425 
H     0.88830   0.82055   0.93885 
N     0.90861   0.76584   0.95487 
C     0.80043   0.59375   0.56575 
H     0.82055   0.61170   0.56115 
H     0.71010   0.53715   0.52065 
H     0.68860   0.56820   0.54710 
H     0.69805   0.52625   0.56380 
N     0.76584   0.59139   0.54514 
C     0.59375   0.69957   0.93425 
H     0.61170   0.67945   0.93885 
H     0.53715   0.78990   0.97935 
H     0.56820   0.81140   0.95290 
H     0.52625   0.80195   0.93620 
N     0.59139   0.73416   0.95487 
C     0.80043   0.90625   0.93425 
H     0.82055   0.88830   0.93885 
N     0.76584   0.90861   0.95487 
C     0.90625   0.69957   0.56575 
H     0.88830   0.67945   0.56115 
N     0.90861   0.73416   0.54514 
C     0.59375   0.80043   0.56575 
H     0.61170   0.82055   0.56115 
N     0.59139   0.76584   0.54514 
